*SPEF "IEEE 1481.1999"
*DESIGN "multiplier"
*DATE "11:44:27 Monday July 20, 2020"
*VENDOR "unknown"
*PROGRAM "qrouter"
*VERSION "unknown"
*DESIGN_FLOW "qflow"
*DIVIDER /
*DELIMITER :
*BUS_DELIMITER <>
*T_UNIT 1 PS
*C_UNIT 1 FF
*R_UNIT 1 OHM
*L_UNIT 1 HENRY

*NAME_MAP
*1 areg[6]
*2 _5733_
*3 _2941_
*4 _3007_
*5 _4618_
*6 _4292_
*7 _4456_
*8 _4457_
*9 _4293_
*10 _4439_
*11 _3622_
*12 _3463_
*13 _4778_
*14 _4925_
*15 _4928_
*16 _4923_
*17 _3104_
*18 _2935_
*19 breg[6]
*20 _5749_
*21 _4398_
*22 _4715_
*23 _4719_
*24 _2945_
*25 _4393_
*26 _2951_
*27 _2998_
*28 _3122_
*29 _3118_
*30 _3225_
*31 _3447_
*32 _3338_
*33 _3622_
*34 _3755_
*35 _4265_
*36 areg[9]
*37 _5736_
*38 _5267_
*39 _5152_
*40 _5347_
*41 _5262_
*42 _4915_
*43 _4914_
*44 _4770_
*45 _4431_
*46 _4267_
*47 _4592_
*48 _3307_
*49 _3597_
*50 _3754_
*51 _4270_
*52 _3195_
*53 _2437_
*54 _2817_
*55 _2864_
*56 _3486_
*57 _3643_
*58 _3952_
*59 _3123_
*60 _3132_
*61 _3231_
*62 _3240_
*63 _3019_
*64 _2904_
*65 _3028_
*66 _2952_
*67 _2828_
*68 _2819_
*69 breg[2]
*70 _5745_
*71 _3196_
*72 _3563_
*73 _3874_
*74 _4043_
*75 _4045_
*76 _3569_
*77 _2831_
*78 _2822_
*79 _2938_
*80 _2820_
*81 _2936_
*82 _3104_
*83 _3198_
*84 _4394_
*85 areg[12]
*86 _5739_
*87 _5463_
*88 _5405_
*89 _5411_
*90 _5124_
*91 _5238_
*92 _4870_
*93 _4386_
*94 _4385_
*95 _4222_
*96 _4042_
*97 _3874_
*98 _4067_
*99 _3714_
*100 _3561_
*101 _2523_
*102 _2825_
*103 _3296_
*104 _2856_
*105 _3715_
*106 _3419_
*107 _3557_
*108 _4027_
*109 _3084_
*110 _3189_
*111 _3083_
*112 _2930_
*113 _2832_
*114 _3002_
*115 _2827_
*116 _2116_
*117 _3079_
*118 _5160_
*119 _5154_
*120 _5268_
*121 _5263_
*122 _4916_
*123 _3081_
*124 _4437_
*125 _4434_
*126 _3762_
*127 _3756_
*128 _3920_
*129 _3599_
*130 _3323_
*131 breg[1]
*132 _5744_
*133 _3078_
*134 _2886_
*135 _2938_
*136 _2834_
*137 _3080_
*138 _3714_
*139 _3421_
*140 _3423_
*141 _4045_
*142 _4237_
*143 _2826_
*144 _3875_
*145 _2239_
*146 _3203_
*147 _5048_
*148 _5041_
*149 _5160_
*150 _5156_
*151 _3204_
*152 _3313_
*153 _3324_
*154 _3442_
*155 _3604_
*156 _3600_
*157 _3758_
*158 _4093_
*159 _2266_
*160 _3230_
*161 _4434_
*162 _4437_
*163 _3942_
*164 _4111_
*165 _3476_
*166 _3296_
*167 _3484_
*168 _3240_
*169 _3231_
*170 _4893_
*171 _4999_
*172 _5000_
*173 breg[0]
*174 _5743_
*175 _2935_
*176 _2941_
*177 _2833_
*178 _2885_
*179 _2852_
*180 _2818_
*181 _3295_
*182 _3880_
*183 _4051_
*184 _3001_
*185 _3195_
*186 _2479_
*187 _2821_
*188 _2837_
*189 _2823_
*190 _3027_
*191 _2864_
*192 _3476_
*193 _3484_
*194 _3641_
*195 _3634_
*196 _3793_
*197 _3131_
*198 _3239_
*199 _559_
*200 _2903_
*201 _2904_
*202 _4721_
*203 _3027_
*204 _2930_
*205 _4055_
*206 _3762_
*207 _3756_
*208 _3923_
*209 _3915_
*210 _3600_
*211 _3604_
*212 _220_
*213 _3951_
*214 _5583_
*215 _5414_
*216 _5348_
*217 _5261_
*218 _5154_
*219 _5160_
*220 _5041_
*221 _5048_
*222 _4786_
*223 _4027_
*224 _3952_
*225 _2447_
*226 _2818_
*227 _3424_
*228 _2856_
*229 _3571_
*230 _3562_
*231 _3721_
*232 _3729_
*233 _2823_
*234 _3081_
*235 _2819_
*236 _2828_
*237 _2597_
*238 _2831_
*239 _2864_
*240 _3204_
*241 _2893_
*242 _3090_
*243 _2832_
*244 _4396_
*245 _3567_
*246 _3323_
*247 _3446_
*248 _3439_
*249 _1813_
*250 _3018_
*251 _3019_
*252 _4723_
*253 _4726_
*254 _4714_
*255 _3028_
*256 _3084_
*257 _3083_
*258 _3239_
*259 _3466_
*260 _3781_
*261 _2342_
*262 _3307_
*263 _4436_
*264 _3317_
*265 _3308_
*266 _3923_
*267 _3915_
*268 _4096_
*269 _4090_
*270 _3446_
*271 _3439_
*272 _5261_
*273 _1083_
*274 _2951_
*275 _4554_
*276 _3758_
*277 _3920_
*278 _4096_
*279 _4090_
*280 _3339_
*281 _3131_
*282 _3002_
*283 _2952_
*284 _2158_
*285 _3121_
*286 _5017_
*287 _4436_
*288 _3189_
*289 _3132_
*290 _3123_
*291 _3625_
*292 _3784_
*293 _4093_
*294 _3939_
*295 _2608_
*296 _3561_
*297 _4723_
*298 _4726_
*299 _4714_
*300 _4999_
*301 _3712_
*302 _5516_
*303 _4554_
*304 _3562_
*305 _3571_
*306 clk
*307 CLKBUF1_insert17
*308 CLKBUF1_insert19
*309 CLKBUF1_insert12
*310 CLKBUF1_insert13
*311 CLKBUF1_insert14
*312 CLKBUF1_insert18
*313 CLKBUF1_insert15
*314 CLKBUF1_insert16
*315 clk_bF_buf0
*316 CLKBUF1_insert19
*317 _5731_
*318 _5742_
*319 _5753_
*320 _5756_
*321 _5751_
*322 _5741_
*323 _5749_
*324 _5757_
*325 clk_bF_buf1
*326 CLKBUF1_insert18
*327 _5703_
*328 _5702_
*329 _5704_
*330 _5734_
*331 _5699_
*332 _5705_
*333 _5706_
*334 _5698_
*335 clk_bF_buf2
*336 CLKBUF1_insert17
*337 _5732_
*338 _5716_
*339 _5715_
*340 _5717_
*341 _5718_
*342 _5735_
*343 _5755_
*344 _5754_
*345 clk_bF_buf3
*346 CLKBUF1_insert16
*347 _5713_
*348 _5714_
*349 _5747_
*350 _5752_
*351 _5730_
*352 _5737_
*353 _5712_
*354 _5711_
*355 clk_bF_buf4
*356 CLKBUF1_insert15
*357 _5720_
*358 _5719_
*359 _5733_
*360 _5740_
*361 _5743_
*362 _5739_
*363 _5758_
*364 _5736_
*365 clk_bF_buf5
*366 CLKBUF1_insert14
*367 _5701_
*368 _5726_
*369 _5723_
*370 _5725_
*371 _5724_
*372 _5722_
*373 _5721_
*374 _5700_
*375 clk_bF_buf6
*376 CLKBUF1_insert13
*377 _5707_
*378 _5709_
*379 _5708_
*380 _5710_
*381 _5746_
*382 _5745_
*383 _5729_
*384 _5750_
*385 clk_bF_buf7
*386 CLKBUF1_insert12
*387 _5695_
*388 _5728_
*389 _5748_
*390 _5727_
*391 _5744_
*392 _5697_
*393 _5696_
*394 _5738_
*395 areg[1]
*396 _5728_
*397 _2884_
*398 _2931_
*399 _2852_
*400 _4219_
*401 _3873_
*402 _4029_
*403 _2825_
*404 _2534_
*405 _2826_
*406 _4235_
*407 _2861_
*408 _2837_
*409 _2827_
*410 _3008_
*411 _3317_
*412 _3308_
*413 _2_
*414 _2852_
*415 _3297_
*416 _2999_
*417 _3428_
*418 _2857_
*419 _5662_
*420 _2880_
*421 _3427_
*422 _1694_
*423 _3007_
*424 _5044_
*425 _3008_
*426 _3218_
*427 _3336_
*428 _3781_
*429 _4111_
*430 _3939_
*431 _2458_
*432 _3422_
*433 _4893_
*434 _5015_
*435 _5467_
*436 _5414_
*437 _3886_
*438 _4059_
*439 _3424_
*440 _696_
*441 _4387_
*442 _4722_
*443 _4865_
*444 _4713_
*445 _4561_
*446 _4568_
*447 _4560_
*448 _4388_
*449 _1090_
*450 _4748_
*451 _4892_
*452 _4888_
*453 _4899_
*454 _4749_
*455 _4753_
*456 _5413_
*457 _5350_
*458 _1412_
*459 _5042_
*460 _5044_
*461 _5160_
*462 _5156_
*463 _5268_
*464 _5263_
*465 _5467_
*466 _5516_
*467 breg_11_bF_buf3
*468 BUFX2_insert101
*469 _4455_
*470 _4457_
*471 _4292_
*472 _4618_
*473 _4774_
*474 _4772_
*475 breg_14_bF_buf1
*476 BUFX2_insert99
*477 _3951_
*478 _4465_
*479 _4300_
*480 _3954_
*481 _3960_
*482 _3949_
*483 breg_14_bF_buf2
*484 BUFX2_insert98
*485 _5043_
*486 _5053_
*487 _4925_
*488 _4784_
*489 _4779_
*490 _4781_
*491 breg_14_bF_buf3
*492 BUFX2_insert97
*493 _5267_
*494 _5155_
*495 _5463_
*496 _5461_
*497 _5262_
*498 _5617_
*499 areg_5_bF_buf1
*500 BUFX2_insert74
*501 _3221_
*502 _3319_
*503 _3338_
*504 _3465_
*505 _3782_
*506 _3624_
*507 areg_5_bF_buf2
*508 BUFX2_insert73
*509 _2885_
*510 _3089_
*511 _3220_
*512 _3106_
*513 _2938_
*514 _2936_
*515 areg_5_bF_buf3
*516 BUFX2_insert72
*517 _4291_
*518 _4293_
*519 _3940_
*520 _4112_
*521 _4455_
*522 _4457_
*523 breg_15_bF_buf2
*524 BUFX2_insert57
*525 _5153_
*526 _5260_
*527 _5042_
*528 _4923_
*529 _4928_
*530 _4925_
*531 breg_15_bF_buf3
*532 BUFX2_insert56
*533 _4625_
*534 _4465_
*535 _4463_
*536 _4119_
*537 _4121_
*538 _4219_
*539 areg_0_bF_buf3
*540 BUFX2_insert40
*541 _3023_
*542 _2822_
*543 _2834_
*544 _2836_
*545 _2945_
*546 _3016_
*547 breg_13_bF_buf3
*548 BUFX2_insert28
*549 _4622_
*550 _4778_
*551 _4921_
*552 _3795_
*553 _4461_
*554 _4300_
*555 breg_4_bF_buf3
*556 BUFX2_insert24
*557 _4385_
*558 _4386_
*559 _4559_
*560 _4061_
*561 _3885_
*562 _4750_
*563 areg_4_bF_buf3
*564 BUFX2_insert4
*565 _4631_
*566 _4626_
*567 _4623_
*568 _4637_
*569 _4629_
*570 _4780_
*571 _2631_
*572 _2835_
*573 _2899_
*574 _2898_
*575 _2895_
*576 _2838_
*577 _2858_
*578 _2904_
*579 _24_
*580 _2854_
*581 _3725_
*582 _3218_
*583 _3313_
*584 _3324_
*585 _2856_
*586 _3886_
*587 _35_
*588 _2855_
*589 _2856_
*590 _3109_
*591 _3339_
*592 _3466_
*593 _3625_
*594 _4113_
*595 _112_
*596 _2862_
*597 _2865_
*598 _2890_
*599 _2952_
*600 _2947_
*601 _2950_
*602 _2946_
*603 _122_
*604 _2863_
*605 _4059_
*606 _2864_
*607 _3109_
*608 _3442_
*609 _3336_
*610 _3599_
*611 _2204_
*612 _3167_
*613 _3279_
*614 _3277_
*615 _3280_
*616 _3401_
*617 _3179_
*618 _3172_
*619 _2457_
*620 _3421_
*621 _3425_
*622 _3558_
*623 _4240_
*624 _4231_
*625 _3567_
*626 _3564_
*627 _2527_
*628 _3485_
*629 _5467_
*630 _5036_
*631 _3486_
*632 _3557_
*633 _3793_
*634 _4113_
*635 _320_
*636 _4043_
*637 _4238_
*638 _4230_
*639 _4241_
*640 _4044_
*641 _4213_
*642 _4390_
*643 _1058_
*644 _4719_
*645 _4722_
*646 _4865_
*647 _4890_
*648 _5012_
*649 _4900_
*650 _4891_
*651 _1807_
*652 _5406_
*653 _5520_
*654 _5581_
*655 _5517_
*656 _5469_
*657 _5407_
*658 _5457_
*659 breg_11_bF_buf0
*660 BUFX2_insert104
*661 _3485_
*662 _5408_
*663 _5342_
*664 _3475_
*665 _3473_
*666 breg_11_bF_buf1
*667 BUFX2_insert103
*668 _4915_
*669 _4913_
*670 _5238_
*671 _5239_
*672 _5147_
*673 breg_11_bF_buf2
*674 BUFX2_insert102
*675 _4293_
*676 _4439_
*677 _4112_
*678 _3946_
*679 _3478_
*680 breg_14_bF_buf0
*681 BUFX2_insert100
*682 _4303_
*683 _4298_
*684 _4626_
*685 _4623_
*686 _4631_
*687 breg_5_bF_buf0
*688 BUFX2_insert96
*689 _2894_
*690 _2902_
*691 _4234_
*692 _4387_
*693 _4716_
*694 breg_5_bF_buf1
*695 BUFX2_insert95
*696 _4385_
*697 _4052_
*698 _4237_
*699 _4057_
*700 _4889_
*701 breg_5_bF_buf2
*702 BUFX2_insert94
*703 _2903_
*704 _3116_
*705 _3220_
*706 _3221_
*707 _3015_
*708 breg_5_bF_buf3
*709 BUFX2_insert93
*710 _3757_
*711 _3337_
*712 _3319_
*713 _3598_
*714 _3463_
*715 breg_8_bF_buf3
*716 BUFX2_insert89
*717 _4870_
*718 _3121_
*719 _4592_
*720 _4267_
*721 _4431_
*722 areg_10_bF_buf3
*723 BUFX2_insert85
*724 _3294_
*725 _3883_
*726 _3722_
*727 _3563_
*728 _4265_
*729 areg_13_bF_buf2
*730 BUFX2_insert82
*731 _5461_
*732 _5582_
*733 _5463_
*734 _5238_
*735 _5239_
*736 areg_13_bF_buf3
*737 BUFX2_insert81
*738 _4045_
*739 _4385_
*740 _4220_
*741 _4222_
*742 _3875_
*743 areg[2]
*744 _5729_
*745 BUFX2_insert80
*746 BUFX2_insert78
*747 BUFX2_insert77
*748 BUFX2_insert79
*749 BUFX2_insert76
*750 areg_2_bF_buf0
*751 BUFX2_insert80
*752 _3122_
*753 _3118_
*754 _3227_
*755 _3021_
*756 _2820_
*757 areg_2_bF_buf1
*758 BUFX2_insert79
*759 _3790_
*760 _3948_
*761 _3954_
*762 _3961_
*763 _4121_
*764 areg_2_bF_buf2
*765 BUFX2_insert78
*766 _3472_
*767 _3347_
*768 _3350_
*769 _3478_
*770 _3345_
*771 areg_2_bF_buf3
*772 BUFX2_insert77
*773 _3795_
*774 _4465_
*775 _4300_
*776 _4119_
*777 _4463_
*778 areg_2_bF_buf4
*779 BUFX2_insert76
*780 _3015_
*781 _2821_
*782 _2862_
*783 _2835_
*784 _2902_
*785 areg_5_bF_buf0
*786 BUFX2_insert75
*787 _4781_
*788 _4784_
*789 _4779_
*790 _4925_
*791 _4622_
*792 areg_8_bF_buf2
*793 BUFX2_insert69
*794 _4615_
*795 _4774_
*796 _4773_
*797 _4913_
*798 _4432_
*799 areg_8_bF_buf3
*800 BUFX2_insert68
*801 _4270_
*802 _3916_
*803 _4091_
*804 _3444_
*805 _3440_
*806 breg_12_bF_buf1
*807 BUFX2_insert66
*808 _5406_
*809 _5408_
*810 _5242_
*811 _3642_
*812 _3631_
*813 breg_12_bF_buf2
*814 BUFX2_insert65
*815 _3948_
*816 _3633_
*817 _3961_
*818 _4117_
*819 _4297_
*820 breg_12_bF_buf3
*821 BUFX2_insert64
*822 _4456_
*823 _4457_
*824 _4617_
*825 _4618_
*826 _4774_
*827 breg_3_bF_buf3
*828 BUFX2_insert60
*829 _2835_
*830 _2836_
*831 _2944_
*832 _2853_
*833 _4591_
*834 breg_15_bF_buf0
*835 BUFX2_insert59
*836 _5346_
*837 _5347_
*838 _5415_
*839 _5617_
*840 _5582_
*841 breg_15_bF_buf1
*842 BUFX2_insert58
*843 _4624_
*844 _4631_
*845 _4637_
*846 _4629_
*847 _4780_
*848 breg_9_bF_buf3
*849 BUFX2_insert52
*850 _3294_
*851 _3230_
*852 _4289_
*853 _3783_
*854 _3782_
*855 areg_11_bF_buf2
*856 BUFX2_insert49
*857 _4393_
*858 _4050_
*859 _3421_
*860 _3727_
*861 _3882_
*862 areg_11_bF_buf3
*863 BUFX2_insert48
*864 _3422_
*865 _4559_
*866 _4889_
*867 _5013_
*868 _4747_
*869 areg_14_bF_buf3
*870 BUFX2_insert44
*871 _4559_
*872 _4045_
*873 _3880_
*874 _4043_
*875 _4391_
*876 areg_0_bF_buf0
*877 BUFX2_insert43
*878 _3125_
*879 _3228_
*880 _3233_
*881 _3347_
*882 _3119_
*883 areg_0_bF_buf1
*884 BUFX2_insert42
*885 _3475_
*886 _3473_
*887 _3631_
*888 _2817_
*889 _2894_
*890 areg_0_bF_buf2
*891 BUFX2_insert41
*892 _3633_
*893 _4121_
*894 _3960_
*895 _3949_
*896 _3792_
*897 areg_3_bF_buf1
*898 BUFX2_insert38
*899 _4303_
*900 _4298_
*901 _4625_
*902 _4624_
*903 _4631_
*904 areg_3_bF_buf2
*905 BUFX2_insert37
*906 _3788_
*907 _3946_
*908 _4117_
*909 _4300_
*910 _4465_
*911 areg_3_bF_buf3
*912 BUFX2_insert36
*913 _3116_
*914 _3013_
*915 _2944_
*916 _2833_
*917 _2860_
*918 breg_10_bF_buf2
*919 BUFX2_insert33
*920 _5018_
*921 _5339_
*922 _5238_
*923 _5124_
*924 _4911_
*925 breg_10_bF_buf3
*926 BUFX2_insert32
*927 _3347_
*928 _3350_
*929 _3345_
*930 _3418_
*931 _3788_
*932 breg_13_bF_buf0
*933 BUFX2_insert31
*934 _5259_
*935 _5152_
*936 _5339_
*937 _5337_
*938 _5518_
*939 breg_13_bF_buf1
*940 BUFX2_insert30
*941 _3790_
*942 _3792_
*943 _3873_
*944 _4029_
*945 _4121_
*946 breg_13_bF_buf2
*947 BUFX2_insert29
*948 _5040_
*949 _5411_
*950 _5463_
*951 _5405_
*952 _5586_
*953 breg_4_bF_buf0
*954 BUFX2_insert27
*955 _3221_
*956 _3219_
*957 _3444_
*958 _3440_
*959 _3754_
*960 breg_4_bF_buf1
*961 BUFX2_insert26
*962 _3107_
*963 _2931_
*964 _2862_
*965 _2884_
*966 _3013_
*967 breg_4_bF_buf2
*968 BUFX2_insert25
*969 _3883_
*970 _4220_
*971 _4222_
*972 _2863_
*973 _4050_
*974 breg_7_bF_buf3
*975 BUFX2_insert20
*976 _3023_
*977 _3021_
*978 _3227_
*979 _3343_
*980 _3606_
*981 areg_15_bF_buf3
*982 BUFX2_insert8
*983 _4233_
*984 _5586_
*985 _5617_
*986 _5415_
*987 _5518_
*988 areg_4_bF_buf0
*989 BUFX2_insert7
*990 _3221_
*991 _3219_
*992 _3337_
*993 _3606_
*994 _3447_
*995 areg_4_bF_buf1
*996 BUFX2_insert6
*997 _3941_
*998 _4461_
*999 _4297_
*1000 _3783_
*1001 _3764_
*1002 areg_4_bF_buf2
*1003 BUFX2_insert5
*1004 _2855_
*1005 _3107_
*1006 _2886_
*1007 _2853_
*1008 _2938_
*1009 areg_7_bF_buf1
*1010 BUFX2_insert2
*1011 _3203_
*1012 _5053_
*1013 _5153_
*1014 _5043_
*1015 _4921_
*1016 areg_7_bF_buf2
*1017 BUFX2_insert1
*1018 _4774_
*1019 _4618_
*1020 _4772_
*1021 _4617_
*1022 _4454_
*1023 areg_7_bF_buf3
*1024 BUFX2_insert0
*1025 _4289_
*1026 _3755_
*1027 _3598_
*1028 _3310_
*1029 _3919_
*1030 _13_
*1031 _2853_
*1032 _2857_
*1033 _3010_
*1034 _3090_
*1035 _3088_
*1036 _2880_
*1037 _1335_
*1038 _2974_
*1039 _3066_
*1040 _3063_
*1041 _3173_
*1042 _2978_
*1043 _2988_
*1044 _1487_
*1045 _2988_
*1046 _2990_
*1047 _2992_
*1048 _3064_
*1049 _3071_
*1050 _3074_
*1051 _2098_
*1052 _3060_
*1053 _3070_
*1054 _3064_
*1055 _3179_
*1056 _3172_
*1057 _3186_
*1058 _2115_
*1059 _3078_
*1060 _3199_
*1061 _3202_
*1062 _3082_
*1063 _3204_
*1064 _3085_
*1065 _2305_
*1066 _3269_
*1067 _3280_
*1068 _3274_
*1069 _3399_
*1070 _3402_
*1071 _3411_
*1072 _2311_
*1073 _3275_
*1074 _3403_
*1075 _3401_
*1076 _3281_
*1077 _3277_
*1078 _3396_
*1079 _2329_
*1080 _3294_
*1081 _4593_
*1082 _4597_
*1083 _3297_
*1084 _3427_
*1085 _3428_
*1086 _2454_
*1087 _3418_
*1088 _3634_
*1089 _3641_
*1090 _3419_
*1091 _5015_
*1092 _5416_
*1093 _2505_
*1094 _3465_
*1095 _3770_
*1096 _3765_
*1097 _3613_
*1098 _3467_
*1099 _3625_
*1100 _2614_
*1101 _3566_
*1102 _3725_
*1103 _3567_
*1104 _4055_
*1105 _5036_
*1106 _5348_
*1107 _2698_
*1108 _3642_
*1109 _3712_
*1110 _5519_
*1111 _4916_
*1112 _3715_
*1113 _3643_
*1114 _282_
*1115 _4007_
*1116 _4190_
*1117 _4021_
*1118 _4189_
*1119 _4197_
*1120 _4014_
*1121 _528_
*1122 _4233_
*1123 _5519_
*1124 _5467_
*1125 _5416_
*1126 _4396_
*1127 _4235_
*1128 _1089_
*1129 _4747_
*1130 _4752_
*1131 _5330_
*1132 _4760_
*1133 _4887_
*1134 _4751_
*1135 _1219_
*1136 _4866_
*1137 _4867_
*1138 _5123_
*1139 _5026_
*1140 _5237_
*1141 _5126_
*1142 _1350_
*1143 _4985_
*1144 _5381_
*1145 _4990_
*1146 _5552_
*1147 _5108_
*1148 _4992_
*1149 _1502_
*1150 _5125_
*1151 _5330_
*1152 _5257_
*1153 _5276_
*1154 _5126_
*1155 _5237_
*1156 _1525_
*1157 _5147_
*1158 _5468_
*1159 _5517_
*1160 _5244_
*1161 _5150_
*1162 _5170_
*1163 _1765_
*1164 _5367_
*1165 _5368_
*1166 _5369_
*1167 _5439_
*1168 _5445_
*1169 _5440_
*1170 _1769_
*1171 _5371_
*1172 _5548_
*1173 _5394_
*1174 _5393_
*1175 _5449_
*1176 _5374_
*1177 _1817_
*1178 _5415_
*1179 _5468_
*1180 _5517_
*1181 _5465_
*1182 _5417_
*1183 _5641_
*1184 _1841_
*1185 _5437_
*1186 _5442_
*1187 _5444_
*1188 _5541_
*1189 _5438_
*1190 _5540_
*1191 _1866_
*1192 _5461_
*1193 _5521_
*1194 _5462_
*1195 _5530_
*1196 _5527_
*1197 _5581_
*1198 _1948_
*1199 _5536_
*1200 _5537_
*1201 _5538_
*1202 _5543_
*1203 _5598_
*1204 _5612_
*1205 _1999_
*1206 _5583_
*1207 _5584_
*1208 _5586_
*1209 _5618_
*1210 _5641_
*1211 _5658_
*1212 breg[11]
*1213 _5754_
*1214 BUFX2_insert103
*1215 BUFX2_insert101
*1216 BUFX2_insert102
*1217 BUFX2_insert104
*1218 breg[14]
*1219 _5757_
*1220 BUFX2_insert98
*1221 BUFX2_insert97
*1222 BUFX2_insert99
*1223 BUFX2_insert100
*1224 breg[5]
*1225 _5748_
*1226 BUFX2_insert95
*1227 BUFX2_insert93
*1228 BUFX2_insert94
*1229 BUFX2_insert96
*1230 breg[8]
*1231 _5751_
*1232 BUFX2_insert90
*1233 BUFX2_insert89
*1234 BUFX2_insert91
*1235 BUFX2_insert92
*1236 breg_8_bF_buf0
*1237 BUFX2_insert92
*1238 _4270_
*1239 _3764_
*1240 _4091_
*1241 _3624_
*1242 breg_8_bF_buf1
*1243 BUFX2_insert91
*1244 _3347_
*1245 _3125_
*1246 _3470_
*1247 _3119_
*1248 breg_8_bF_buf2
*1249 BUFX2_insert90
*1250 _4747_
*1251 _4866_
*1252 _5127_
*1253 _5255_
*1254 areg[10]
*1255 _5737_
*1256 BUFX2_insert85
*1257 BUFX2_insert86
*1258 BUFX2_insert87
*1259 BUFX2_insert88
*1260 areg_10_bF_buf0
*1261 BUFX2_insert88
*1262 _5346_
*1263 _5035_
*1264 _4911_
*1265 _5259_
*1266 areg_10_bF_buf1
*1267 BUFX2_insert87
*1268 _3885_
*1269 _3295_
*1270 _3566_
*1271 _3423_
*1272 areg_10_bF_buf2
*1273 BUFX2_insert86
*1274 _4052_
*1275 _4429_
*1276 _4592_
*1277 _4750_
*1278 areg[13]
*1279 _5740_
*1280 BUFX2_insert82
*1281 BUFX2_insert83
*1282 BUFX2_insert84
*1283 BUFX2_insert81
*1284 areg_13_bF_buf0
*1285 BUFX2_insert84
*1286 _4387_
*1287 _3720_
*1288 _4715_
*1289 _4870_
*1290 areg_13_bF_buf1
*1291 BUFX2_insert83
*1292 _5342_
*1293 _5408_
*1294 _5127_
*1295 _4866_
*1296 areg[5]
*1297 _5732_
*1298 BUFX2_insert75
*1299 BUFX2_insert72
*1300 BUFX2_insert74
*1301 BUFX2_insert73
*1302 areg[8]
*1303 _5735_
*1304 BUFX2_insert70
*1305 BUFX2_insert69
*1306 BUFX2_insert68
*1307 BUFX2_insert71
*1308 areg_8_bF_buf0
*1309 BUFX2_insert71
*1310 _3078_
*1311 _3196_
*1312 _3315_
*1313 _3757_
*1314 areg_8_bF_buf1
*1315 BUFX2_insert70
*1316 _3079_
*1317 _5260_
*1318 _5155_
*1319 _5040_
*1320 breg[12]
*1321 _5755_
*1322 BUFX2_insert66
*1323 BUFX2_insert64
*1324 BUFX2_insert65
*1325 BUFX2_insert67
*1326 breg_12_bF_buf0
*1327 BUFX2_insert67
*1328 _4773_
*1329 _4914_
*1330 _5035_
*1331 _5255_
*1332 breg[3]
*1333 _5746_
*1334 BUFX2_insert61
*1335 BUFX2_insert62
*1336 BUFX2_insert60
*1337 BUFX2_insert63
*1338 breg_3_bF_buf0
*1339 BUFX2_insert63
*1340 _4067_
*1341 _4042_
*1342 _4222_
*1343 _3882_
*1344 breg_3_bF_buf1
*1345 BUFX2_insert62
*1346 _3106_
*1347 _3315_
*1348 _3597_
*1349 _3310_
*1350 breg_3_bF_buf2
*1351 BUFX2_insert61
*1352 _2854_
*1353 _3722_
*1354 _3727_
*1355 _4391_
*1356 breg[15]
*1357 _5758_
*1358 BUFX2_insert57
*1359 BUFX2_insert56
*1360 BUFX2_insert58
*1361 BUFX2_insert59
*1362 breg[9]
*1363 _5752_
*1364 BUFX2_insert52
*1365 BUFX2_insert54
*1366 BUFX2_insert53
*1367 BUFX2_insert55
*1368 breg_9_bF_buf0
*1369 BUFX2_insert55
*1370 _3472_
*1371 _3233_
*1372 _3629_
*1373 _3228_
*1374 breg_9_bF_buf1
*1375 BUFX2_insert54
*1376 _5118_
*1377 _5125_
*1378 _4748_
*1379 _5127_
*1380 breg_9_bF_buf2
*1381 BUFX2_insert53
*1382 _4432_
*1383 _4889_
*1384 _4750_
*1385 _4592_
*1386 areg[11]
*1387 _5738_
*1388 BUFX2_insert50
*1389 BUFX2_insert48
*1390 BUFX2_insert51
*1391 BUFX2_insert49
*1392 areg_11_bF_buf0
*1393 BUFX2_insert51
*1394 _3569_
*1395 _4061_
*1396 _4237_
*1397 _4234_
*1398 areg_11_bF_buf1
*1399 BUFX2_insert50
*1400 _5018_
*1401 _5339_
*1402 _5147_
*1403 _5255_
*1404 areg[14]
*1405 _5741_
*1406 BUFX2_insert44
*1407 BUFX2_insert46
*1408 BUFX2_insert47
*1409 BUFX2_insert45
*1410 areg_14_bF_buf0
*1411 BUFX2_insert47
*1412 _5406_
*1413 _5014_
*1414 _5127_
*1415 _5125_
*1416 areg_14_bF_buf1
*1417 BUFX2_insert46
*1418 _5408_
*1419 _5337_
*1420 _5339_
*1421 _5617_
*1422 areg_14_bF_buf2
*1423 BUFX2_insert45
*1424 _4557_
*1425 _4720_
*1426 _4716_
*1427 _4719_
*1428 areg[0]
*1429 _5727_
*1430 BUFX2_insert40
*1431 BUFX2_insert43
*1432 BUFX2_insert41
*1433 BUFX2_insert42
*1434 areg[3]
*1435 _5730_
*1436 BUFX2_insert37
*1437 BUFX2_insert36
*1438 BUFX2_insert39
*1439 BUFX2_insert38
*1440 areg_3_bF_buf0
*1441 BUFX2_insert39
*1442 _3629_
*1443 _3470_
*1444 _3225_
*1445 _3343_
*1446 breg[10]
*1447 _5753_
*1448 BUFX2_insert33
*1449 BUFX2_insert32
*1450 BUFX2_insert34
*1451 BUFX2_insert35
*1452 breg_10_bF_buf0
*1453 BUFX2_insert35
*1454 _5014_
*1455 _4770_
*1456 _4615_
*1457 _4454_
*1458 breg_10_bF_buf1
*1459 BUFX2_insert34
*1460 _4291_
*1461 _4293_
*1462 _3940_
*1463 _3941_
*1464 breg[13]
*1465 _5756_
*1466 BUFX2_insert30
*1467 BUFX2_insert28
*1468 BUFX2_insert29
*1469 BUFX2_insert31
*1470 breg[4]
*1471 _5747_
*1472 BUFX2_insert24
*1473 BUFX2_insert25
*1474 BUFX2_insert26
*1475 BUFX2_insert27
*1476 breg[7]
*1477 _5750_
*1478 BUFX2_insert20
*1479 BUFX2_insert21
*1480 BUFX2_insert23
*1481 BUFX2_insert22
*1482 breg_7_bF_buf0
*1483 BUFX2_insert23
*1484 _4870_
*1485 _4557_
*1486 _5013_
*1487 _5148_
*1488 breg_7_bF_buf1
*1489 BUFX2_insert22
*1490 _3465_
*1491 _4270_
*1492 _3919_
*1493 _3916_
*1494 breg_7_bF_buf2
*1495 BUFX2_insert21
*1496 _3018_
*1497 _3016_
*1498 _4429_
*1499 _4559_
*1500 areg[15]
*1501 _5742_
*1502 BUFX2_insert9
*1503 BUFX2_insert8
*1504 BUFX2_insert10
*1505 BUFX2_insert11
*1506 areg_15_bF_buf0
*1507 BUFX2_insert11
*1508 _4398_
*1509 _4057_
*1510 _4750_
*1511 _4889_
*1512 areg_15_bF_buf1
*1513 BUFX2_insert10
*1514 _4591_
*1515 _4237_
*1516 _4394_
*1517 _4051_
*1518 areg_15_bF_buf2
*1519 BUFX2_insert9
*1520 _5148_
*1521 _4748_
*1522 _5255_
*1523 _5242_
*1524 areg[4]
*1525 _5731_
*1526 BUFX2_insert4
*1527 BUFX2_insert6
*1528 BUFX2_insert5
*1529 BUFX2_insert7
*1530 areg[7]
*1531 _5734_
*1532 BUFX2_insert2
*1533 BUFX2_insert1
*1534 BUFX2_insert0
*1535 BUFX2_insert3
*1536 areg_7_bF_buf0
*1537 BUFX2_insert3
*1538 _2998_
*1539 _3198_
*1540 _3080_
*1541 _3001_
*1542 _2545_
*1543 _2827_
*1544 _3713_
*1545 _2828_
*1546 _2830_
*1547 _2840_
*1548 _307_
*1549 _2880_
*1550 _2919_
*1551 _2975_
*1552 _2981_
*1553 _2918_
*1554 _373_
*1555 _2886_
*1556 _2887_
*1557 _2932_
*1558 _2937_
*1559 _3004_
*1560 _450_
*1561 _2893_
*1562 _2907_
*1563 _2897_
*1564 _2896_
*1565 _2943_
*1566 _461_
*1567 _2894_
*1568 _2899_
*1569 _2898_
*1570 _2895_
*1571 _3022_
*1572 _886_
*1573 _2933_
*1574 _2997_
*1575 _3050_
*1576 _2969_
*1577 _2973_
*1578 _919_
*1579 _2936_
*1580 _3010_
*1581 _3088_
*1582 _2937_
*1583 _3004_
*1584 _1007_
*1585 _2944_
*1586 _3012_
*1587 _2948_
*1588 _2957_
*1589 _2949_
*1590 _1280_
*1591 _2969_
*1592 _2993_
*1593 _2970_
*1594 _2983_
*1595 _2977_
*1596 _1552_
*1597 _2994_
*1598 _3075_
*1599 _2995_
*1600 _3061_
*1601 _3059_
*1602 _1759_
*1603 _3013_
*1604 _3115_
*1605 _3024_
*1606 _3014_
*1607 _3029_
*1608 _2108_
*1609 _3070_
*1610 _3072_
*1611 _3183_
*1612 _3285_
*1613 _3180_
*1614 _2113_
*1615 _3076_
*1616 _3162_
*1617 _3170_
*1618 _3163_
*1619 _3188_
*1620 _2126_
*1621 _3089_
*1622 _3784_
*1623 _3942_
*1624 _3090_
*1625 _4786_
*1626 _2143_
*1627 _3106_
*1628 _3108_
*1629 _3112_
*1630 _3111_
*1631 _3109_
*1632 _2144_
*1633 _3107_
*1634 _3111_
*1635 _3108_
*1636 _3112_
*1637 _3320_
*1638 _2153_
*1639 _3116_
*1640 _3133_
*1641 _3128_
*1642 _3224_
*1643 _3117_
*1644 _2156_
*1645 _3119_
*1646 _3131_
*1647 _3346_
*1648 _3120_
*1649 _3127_
*1650 _2231_
*1651 _3195_
*1652 _3209_
*1653 _3200_
*1654 _3201_
*1655 _3305_
*1656 _2254_
*1657 _3218_
*1658 _3318_
*1659 _3327_
*1660 _3223_
*1661 _3245_
*1662 _2261_
*1663 _3225_
*1664 _3241_
*1665 _3342_
*1666 _3226_
*1667 _3236_
*1668 _2310_
*1669 _3274_
*1670 _3408_
*1671 _3400_
*1672 _3547_
*1673 _3278_
*1674 _2318_
*1675 _3282_
*1676 _3288_
*1677 _3290_
*1678 _3283_
*1679 _3701_
*1680 _2326_
*1681 _3291_
*1682 _3397_
*1683 _3292_
*1684 _3395_
*1685 _3413_
*1686 _2330_
*1687 _3295_
*1688 _4058_
*1689 _3425_
*1690 _3296_
*1691 _3558_
*1692 _2336_
*1693 _3301_
*1694 _3386_
*1695 _3417_
*1696 _3302_
*1697 _3389_
*1698 _2373_
*1699 _3338_
*1700 _3607_
*1701 _3612_
*1702 _3466_
*1703 _3340_
*1704 _2378_
*1705 _3343_
*1706 _3469_
*1707 _3355_
*1708 _3344_
*1709 _3352_
*1710 _2380_
*1711 _3345_
*1712 _3637_
*1713 _3632_
*1714 _3643_
*1715 _3346_
*1716 _2382_
*1717 _3347_
*1718 _3469_
*1719 _3352_
*1720 _3355_
*1721 _3348_
*1722 _2450_
*1723 _3414_
*1724 _3538_
*1725 _3532_
*1726 _3553_
*1727 _3415_
*1728 _2474_
*1729 _3437_
*1730 _3459_
*1731 _3438_
*1732 _3504_
*1733 _3588_
*1734 _2487_
*1735 _3449_
*1736 _3450_
*1737 _3457_
*1738 _3587_
*1739 _3455_
*1740 _2510_
*1741 _3470_
*1742 _3487_
*1743 _3471_
*1744 _3628_
*1745 _3481_
*1746 _2514_
*1747 _3473_
*1748 _3484_
*1749 _3474_
*1750 _3480_
*1751 _3791_
*1752 _2586_
*1753 _3541_
*1754 _3550_
*1755 _3548_
*1756 _3545_
*1757 _3703_
*1758 _2596_
*1759 _3551_
*1760 _3699_
*1761 _3865_
*1762 _5387_
*1763 _4206_
*1764 _2601_
*1765 _3554_
*1766 _3692_
*1767 _3682_
*1768 _3683_
*1769 _3849_
*1770 _2610_
*1771 _3562_
*1772 _3718_
*1773 _3573_
*1774 _3575_
*1775 _3568_
*1776 _2615_
*1777 _3567_
*1778 _3570_
*1779 _3718_
*1780 _3575_
*1781 _3568_
*1782 _2617_
*1783 _3569_
*1784 _4399_
*1785 _3723_
*1786 _3725_
*1787 _3570_
*1788 _2621_
*1789 _3572_
*1790 _3586_
*1791 _3577_
*1792 _3711_
*1793 _3746_
*1794 _2626_
*1795 _3577_
*1796 _3711_
*1797 _3746_
*1798 _3591_
*1799 _3584_
*1800 _2658_
*1801 _3606_
*1802 _3612_
*1803 _3607_
*1804 _3771_
*1805 _3626_
*1806 _2683_
*1807 _3629_
*1808 _3644_
*1809 _3787_
*1810 _3638_
*1811 _3630_
*1812 _2754_
*1813 _3694_
*1814 _3706_
*1815 _3698_
*1816 _4202_
*1817 _3861_
*1818 _2769_
*1819 _3709_
*1820 _3843_
*1821 _3853_
*1822 _4008_
*1823 _3844_
*1824 _2782_
*1825 _3721_
*1826 _3878_
*1827 _3733_
*1828 _3726_
*1829 _3731_
*1830 _2787_
*1831 _3725_
*1832 _3728_
*1833 _3878_
*1834 _3733_
*1835 _3726_
*1836 _2792_
*1837 _3730_
*1838 _3735_
*1839 _3742_
*1840 _3872_
*1841 _3907_
*1842 _2798_
*1843 _3735_
*1844 _3747_
*1845 _3740_
*1846 _3872_
*1847 _3907_
*1848 _37_
*1849 _3783_
*1850 _3784_
*1851 _3924_
*1852 _4097_
*1853 _3943_
*1854 _42_
*1855 _3788_
*1856 _3789_
*1857 _3945_
*1858 _3798_
*1859 _3801_
*1860 _47_
*1861 _3792_
*1862 _3797_
*1863 _3793_
*1864 _4124_
*1865 _4120_
*1866 _130_
*1867 _3869_
*1868 _3870_
*1869 _4011_
*1870 _4026_
*1871 _4006_
*1872 _136_
*1873 _3875_
*1874 _4044_
*1875 _4030_
*1876 _3876_
*1877 _4213_
*1878 _147_
*1879 _3885_
*1880 _3886_
*1881 _3888_
*1882 _4749_
*1883 _4753_
*1884 _153_
*1885 _3891_
*1886 _3903_
*1887 _3895_
*1888 _4081_
*1889 _4041_
*1890 _159_
*1891 _3895_
*1892 _3909_
*1893 _3901_
*1894 _4081_
*1895 _4041_
*1896 _179_
*1897 _3913_
*1898 _3914_
*1899 _3935_
*1900 _3980_
*1901 _4078_
*1902 _182_
*1903 _3916_
*1904 _3922_
*1905 _3917_
*1906 _4093_
*1907 _4268_
*1908 _192_
*1909 _3925_
*1910 _3933_
*1911 _3926_
*1912 _3931_
*1913 _4077_
*1914 _208_
*1915 _3940_
*1916 _4440_
*1917 _4113_
*1918 _4097_
*1919 _3943_
*1920 _215_
*1921 _3946_
*1922 _3962_
*1923 _4116_
*1924 _3957_
*1925 _3947_
*1926 _217_
*1927 _3948_
*1928 _3952_
*1929 _3960_
*1930 _3956_
*1931 _3950_
*1932 _296_
*1933 _4021_
*1934 _5385_
*1935 _4023_
*1936 _4024_
*1937 _4199_
*1938 _300_
*1939 _4025_
*1940 _4184_
*1941 _4185_
*1942 _4192_
*1943 _4208_
*1944 _305_
*1945 _4030_
*1946 _4035_
*1947 _4033_
*1948 _4036_
*1949 _4032_
*1950 _306_
*1951 _4031_
*1952 _4033_
*1953 _4035_
*1954 _4036_
*1955 _4032_
*1956 _319_
*1957 _4042_
*1958 _4221_
*1959 _4380_
*1960 _4066_
*1961 _4047_
*1962 _333_
*1963 _4055_
*1964 _4058_
*1965 _4228_
*1966 _4056_
*1967 _4063_
*1968 _335_
*1969 _4057_
*1970 _4893_
*1971 _4231_
*1972 _4240_
*1973 _4058_
*1974 _338_
*1975 _4060_
*1976 _4076_
*1977 _4065_
*1978 _4218_
*1979 _4258_
*1980 _344_
*1981 _4065_
*1982 _4074_
*1983 _4082_
*1984 _4258_
*1985 _4218_
*1986 _369_
*1987 _4088_
*1988 _4255_
*1989 _4089_
*1990 _4143_
*1991 _4108_
*1992 _380_
*1993 _4098_
*1994 _4254_
*1995 _4104_
*1996 _4099_
*1997 _4106_
*1998 _400_
*1999 _4117_
*2000 _4128_
*2001 _4296_
*2002 _4118_
*2003 _4125_
*2004 _404_
*2005 _4121_
*2006 _4122_
*2007 _4128_
*2008 _4296_
*2009 _4125_
*2010 _498_
*2011 _4206_
*2012 _4372_
*2013 _4374_
*2014 _4545_
*2015 _4857_
*2016 _501_
*2017 _4209_
*2018 _4368_
*2019 _4364_
*2020 _4210_
*2021 _4541_
*2022 _508_
*2023 _4215_
*2024 _4216_
*2025 _4352_
*2026 _4518_
*2027 _4356_
*2028 _529_
*2029 _4234_
*2030 _4235_
*2031 _4892_
*2032 _4888_
*2033 _4899_
*2034 _534_
*2035 _4239_
*2036 _4384_
*2037 _4421_
*2038 _4244_
*2039 _4253_
*2040 _540_
*2041 _4244_
*2042 _4421_
*2043 _4384_
*2044 _4251_
*2045 _4259_
*2046 _562_
*2047 _4264_
*2048 _4325_
*2049 _4281_
*2050 _4418_
*2051 _4282_
*2052 _563_
*2053 _4265_
*2054 _4428_
*2055 _4273_
*2056 _4278_
*2057 _4266_
*2058 _565_
*2059 _4267_
*2060 _4597_
*2061 _4593_
*2062 _4434_
*2063 _4268_
*2064 _568_
*2065 _4270_
*2066 _4428_
*2067 _4271_
*2068 _4273_
*2069 _4278_
*2070 _572_
*2071 _4273_
*2072 _4279_
*2073 _4412_
*2074 _4277_
*2075 _4283_
*2076 _574_
*2077 _4275_
*2078 _4280_
*2079 _4417_
*2080 _4283_
*2081 _4276_
*2082 _592_
*2083 _4292_
*2084 _4761_
*2085 _4619_
*2086 _4756_
*2087 _4294_
*2088 _597_
*2089 _4297_
*2090 _4310_
*2091 _4301_
*2092 _4302_
*2093 _4460_
*2094 _600_
*2095 _4300_
*2096 _4460_
*2097 _4305_
*2098 _4301_
*2099 _4310_
*2100 _685_
*2101 _4377_
*2102 _4378_
*2103 _4527_
*2104 _4537_
*2105 _4546_
*2106 _691_
*2107 _4382_
*2108 _4680_
*2109 _4522_
*2110 _4513_
*2111 _4512_
*2112 _700_
*2113 _4391_
*2114 _4392_
*2115 _4556_
*2116 _4404_
*2117 _4401_
*2118 _713_
*2119 _4402_
*2120 _4553_
*2121 _4583_
*2122 _4407_
*2123 _4416_
*2124 _718_
*2125 _4407_
*2126 _4583_
*2127 _4553_
*2128 _4422_
*2129 _4414_
*2130 _742_
*2131 _4429_
*2132 _4442_
*2133 _4430_
*2134 _4438_
*2135 _5244_
*2136 _749_
*2137 _4435_
*2138 _4590_
*2139 _4448_
*2140 _4574_
*2141 _4441_
*2142 _754_
*2143 _4440_
*2144 _4449_
*2145 _4441_
*2146 _4444_
*2147 _4574_
*2148 _777_
*2149 _4461_
*2150 _4621_
*2151 _4472_
*2152 _4469_
*2153 _4462_
*2154 _782_
*2155 _4465_
*2156 _4621_
*2157 _4472_
*2158 _4469_
*2159 _4466_
*2160 _870_
*2161 _4547_
*2162 _4696_
*2163 _4687_
*2164 _4705_
*2165 _4686_
*2166 _873_
*2167 _4550_
*2168 _4551_
*2169 _4833_
*2170 _4681_
*2171 _4678_
*2172 _881_
*2173 _4557_
*2174 _5015_
*2175 _5019_
*2176 _4562_
*2177 _4558_
*2178 _883_