* XSpice netlist created from SPICE and liberty sources by spi2xspice.py
*SPICE netlist created from verilog structural netlist module multiplier by vlog2Spice (qflow)
** Start of included library /usr/local/share/qflow/tech/osu018/osu018_stdcells.sp
** End of included library /usr/local/share/qflow/tech/osu018/osu018_stdcells.sp
.subckt multiplier a_vdd a_gnd a_a_0_ a_a_1_ a_a_2_ a_a_3_ a_a_4_ a_a_5_ a_a_6_ a_a_7_ a_a_8_ a_a_9_ a_a_10_ a_a_11_ a_a_12_ a_a_13_ a_a_14_ a_a_15_ a_b_0_ a_b_1_ a_b_2_ a_b_3_ a_b_4_ a_b_5_ a_b_6_ a_b_7_ a_b_8_ a_b_9_ a_b_10_ a_b_11_ a_b_12_ a_b_13_ a_b_14_ a_b_15_ a_clk a_y_0_ a_y_1_ a_y_2_ a_y_3_ a_y_4_ a_y_5_ a_y_6_ a_y_7_ a_y_8_ a_y_9_ a_y_10_ a_y_11_ a_y_12_ a_y_13_ a_y_14_ a_y_15_ a_y_16_ a_y_17_ a_y_18_ a_y_19_ a_y_20_ a_y_21_ a_y_22_ a_y_23_ a_y_24_ a_y_25_ a_y_26_ a_y_27_ a_y_28_ a_y_29_ a_y_30_ a_y_31_
ABUFX2_insert104 [breg_11_] breg_11_bF$buf0 d_lut_BUFX2
ABUFX2_insert103 [breg_11_] breg_11_bF$buf1 d_lut_BUFX2
ABUFX2_insert102 [breg_11_] breg_11_bF$buf2 d_lut_BUFX2
ABUFX2_insert101 [breg_11_] breg_11_bF$buf3 d_lut_BUFX2
ABUFX2_insert100 [breg_14_] breg_14_bF$buf0 d_lut_BUFX2
ABUFX2_insert99 [breg_14_] breg_14_bF$buf1 d_lut_BUFX2
ABUFX2_insert98 [breg_14_] breg_14_bF$buf2 d_lut_BUFX2
ABUFX2_insert97 [breg_14_] breg_14_bF$buf3 d_lut_BUFX2
ABUFX2_insert96 [breg_5_] breg_5_bF$buf0 d_lut_BUFX2
ABUFX2_insert95 [breg_5_] breg_5_bF$buf1 d_lut_BUFX2
ABUFX2_insert94 [breg_5_] breg_5_bF$buf2 d_lut_BUFX2
ABUFX2_insert93 [breg_5_] breg_5_bF$buf3 d_lut_BUFX2
ABUFX2_insert92 [breg_8_] breg_8_bF$buf0 d_lut_BUFX2
ABUFX2_insert91 [breg_8_] breg_8_bF$buf1 d_lut_BUFX2
ABUFX2_insert90 [breg_8_] breg_8_bF$buf2 d_lut_BUFX2
ABUFX2_insert89 [breg_8_] breg_8_bF$buf3 d_lut_BUFX2
ABUFX2_insert88 [areg_10_] areg_10_bF$buf0 d_lut_BUFX2
ABUFX2_insert87 [areg_10_] areg_10_bF$buf1 d_lut_BUFX2
ABUFX2_insert86 [areg_10_] areg_10_bF$buf2 d_lut_BUFX2
ABUFX2_insert85 [areg_10_] areg_10_bF$buf3 d_lut_BUFX2
ABUFX2_insert84 [areg_13_] areg_13_bF$buf0 d_lut_BUFX2
ABUFX2_insert83 [areg_13_] areg_13_bF$buf1 d_lut_BUFX2
ABUFX2_insert82 [areg_13_] areg_13_bF$buf2 d_lut_BUFX2
ABUFX2_insert81 [areg_13_] areg_13_bF$buf3 d_lut_BUFX2
ABUFX2_insert80 [areg_2_] areg_2_bF$buf0 d_lut_BUFX2
ABUFX2_insert79 [areg_2_] areg_2_bF$buf1 d_lut_BUFX2
ABUFX2_insert78 [areg_2_] areg_2_bF$buf2 d_lut_BUFX2
ABUFX2_insert77 [areg_2_] areg_2_bF$buf3 d_lut_BUFX2
ABUFX2_insert76 [areg_2_] areg_2_bF$buf4 d_lut_BUFX2
ABUFX2_insert75 [areg_5_] areg_5_bF$buf0 d_lut_BUFX2
ABUFX2_insert74 [areg_5_] areg_5_bF$buf1 d_lut_BUFX2
ABUFX2_insert73 [areg_5_] areg_5_bF$buf2 d_lut_BUFX2
ABUFX2_insert72 [areg_5_] areg_5_bF$buf3 d_lut_BUFX2
ABUFX2_insert71 [areg_8_] areg_8_bF$buf0 d_lut_BUFX2
ABUFX2_insert70 [areg_8_] areg_8_bF$buf1 d_lut_BUFX2
ABUFX2_insert69 [areg_8_] areg_8_bF$buf2 d_lut_BUFX2
ABUFX2_insert68 [areg_8_] areg_8_bF$buf3 d_lut_BUFX2
ABUFX2_insert67 [breg_12_] breg_12_bF$buf0 d_lut_BUFX2
ABUFX2_insert66 [breg_12_] breg_12_bF$buf1 d_lut_BUFX2
ABUFX2_insert65 [breg_12_] breg_12_bF$buf2 d_lut_BUFX2
ABUFX2_insert64 [breg_12_] breg_12_bF$buf3 d_lut_BUFX2
ABUFX2_insert63 [breg_3_] breg_3_bF$buf0 d_lut_BUFX2
ABUFX2_insert62 [breg_3_] breg_3_bF$buf1 d_lut_BUFX2
ABUFX2_insert61 [breg_3_] breg_3_bF$buf2 d_lut_BUFX2
ABUFX2_insert60 [breg_3_] breg_3_bF$buf3 d_lut_BUFX2
ABUFX2_insert59 [breg_15_] breg_15_bF$buf0 d_lut_BUFX2
ABUFX2_insert58 [breg_15_] breg_15_bF$buf1 d_lut_BUFX2
ABUFX2_insert57 [breg_15_] breg_15_bF$buf2 d_lut_BUFX2
ABUFX2_insert56 [breg_15_] breg_15_bF$buf3 d_lut_BUFX2
ABUFX2_insert55 [breg_9_] breg_9_bF$buf0 d_lut_BUFX2
ABUFX2_insert54 [breg_9_] breg_9_bF$buf1 d_lut_BUFX2
ABUFX2_insert53 [breg_9_] breg_9_bF$buf2 d_lut_BUFX2
ABUFX2_insert52 [breg_9_] breg_9_bF$buf3 d_lut_BUFX2
ABUFX2_insert51 [areg_11_] areg_11_bF$buf0 d_lut_BUFX2
ABUFX2_insert50 [areg_11_] areg_11_bF$buf1 d_lut_BUFX2
ABUFX2_insert49 [areg_11_] areg_11_bF$buf2 d_lut_BUFX2
ABUFX2_insert48 [areg_11_] areg_11_bF$buf3 d_lut_BUFX2
ABUFX2_insert47 [areg_14_] areg_14_bF$buf0 d_lut_BUFX2
ABUFX2_insert46 [areg_14_] areg_14_bF$buf1 d_lut_BUFX2
ABUFX2_insert45 [areg_14_] areg_14_bF$buf2 d_lut_BUFX2
ABUFX2_insert44 [areg_14_] areg_14_bF$buf3 d_lut_BUFX2
ABUFX2_insert43 [areg_0_] areg_0_bF$buf0 d_lut_BUFX2
ABUFX2_insert42 [areg_0_] areg_0_bF$buf1 d_lut_BUFX2
ABUFX2_insert41 [areg_0_] areg_0_bF$buf2 d_lut_BUFX2
ABUFX2_insert40 [areg_0_] areg_0_bF$buf3 d_lut_BUFX2
ABUFX2_insert39 [areg_3_] areg_3_bF$buf0 d_lut_BUFX2
ABUFX2_insert38 [areg_3_] areg_3_bF$buf1 d_lut_BUFX2
ABUFX2_insert37 [areg_3_] areg_3_bF$buf2 d_lut_BUFX2
ABUFX2_insert36 [areg_3_] areg_3_bF$buf3 d_lut_BUFX2
ABUFX2_insert35 [breg_10_] breg_10_bF$buf0 d_lut_BUFX2
ABUFX2_insert34 [breg_10_] breg_10_bF$buf1 d_lut_BUFX2
ABUFX2_insert33 [breg_10_] breg_10_bF$buf2 d_lut_BUFX2
ABUFX2_insert32 [breg_10_] breg_10_bF$buf3 d_lut_BUFX2
ABUFX2_insert31 [breg_13_] breg_13_bF$buf0 d_lut_BUFX2
ABUFX2_insert30 [breg_13_] breg_13_bF$buf1 d_lut_BUFX2
ABUFX2_insert29 [breg_13_] breg_13_bF$buf2 d_lut_BUFX2
ABUFX2_insert28 [breg_13_] breg_13_bF$buf3 d_lut_BUFX2
ABUFX2_insert27 [breg_4_] breg_4_bF$buf0 d_lut_BUFX2
ABUFX2_insert26 [breg_4_] breg_4_bF$buf1 d_lut_BUFX2
ABUFX2_insert25 [breg_4_] breg_4_bF$buf2 d_lut_BUFX2
ABUFX2_insert24 [breg_4_] breg_4_bF$buf3 d_lut_BUFX2
ABUFX2_insert23 [breg_7_] breg_7_bF$buf0 d_lut_BUFX2
ABUFX2_insert22 [breg_7_] breg_7_bF$buf1 d_lut_BUFX2
ABUFX2_insert21 [breg_7_] breg_7_bF$buf2 d_lut_BUFX2
ABUFX2_insert20 [breg_7_] breg_7_bF$buf3 d_lut_BUFX2
ACLKBUF1_insert19 [clk] clk_bF$buf0 d_lut_CLKBUF1
ACLKBUF1_insert18 [clk] clk_bF$buf1 d_lut_CLKBUF1
ACLKBUF1_insert17 [clk] clk_bF$buf2 d_lut_CLKBUF1
ACLKBUF1_insert16 [clk] clk_bF$buf3 d_lut_CLKBUF1
ACLKBUF1_insert15 [clk] clk_bF$buf4 d_lut_CLKBUF1
ACLKBUF1_insert14 [clk] clk_bF$buf5 d_lut_CLKBUF1
ACLKBUF1_insert13 [clk] clk_bF$buf6 d_lut_CLKBUF1
ACLKBUF1_insert12 [clk] clk_bF$buf7 d_lut_CLKBUF1
ABUFX2_insert11 [areg_15_] areg_15_bF$buf0 d_lut_BUFX2
ABUFX2_insert10 [areg_15_] areg_15_bF$buf1 d_lut_BUFX2
ABUFX2_insert9 [areg_15_] areg_15_bF$buf2 d_lut_BUFX2
ABUFX2_insert8 [areg_15_] areg_15_bF$buf3 d_lut_BUFX2
ABUFX2_insert7 [areg_4_] areg_4_bF$buf0 d_lut_BUFX2
ABUFX2_insert6 [areg_4_] areg_4_bF$buf1 d_lut_BUFX2
ABUFX2_insert5 [areg_4_] areg_4_bF$buf2 d_lut_BUFX2
ABUFX2_insert4 [areg_4_] areg_4_bF$buf3 d_lut_BUFX2
ABUFX2_insert3 [areg_7_] areg_7_bF$buf0 d_lut_BUFX2
ABUFX2_insert2 [areg_7_] areg_7_bF$buf1 d_lut_BUFX2
ABUFX2_insert1 [areg_7_] areg_7_bF$buf2 d_lut_BUFX2
ABUFX2_insert0 [areg_7_] areg_7_bF$buf3 d_lut_BUFX2
A_2817_ [areg_0_bF$buf3] _2437_ d_lut_INVX8
A_2818_ [breg_0_] _2447_ d_lut_INVX4
A_2819_ [_2437_ _2447_] _0__0_ d_lut_NOR2X1
A_2820_ [breg_2_ areg_2_bF$buf4 _0__0_] _2468_ d_lut_NAND3X1
A_2821_ [areg_2_bF$buf3] _2479_ d_lut_INVX4
A_2822_ [areg_0_bF$buf2 breg_2_] _2490_ d_lut_NAND2X1
A_2823_ [_2447_ _2479_ _2490_] _2501_ d_lut_OAI21X1
A_2824_ [_2501_ _2468_] _2512_ d_lut_NAND2X1
A_2825_ [areg_1_] _2523_ d_lut_INVX8
A_2826_ [breg_1_] _2534_ d_lut_INVX4
A_2827_ [_2523_ _2534_] _2545_ d_lut_NOR2X1
A_2828_ [_2437_ _2447_ _2545_] _2556_ d_lut_OAI21X1
A_2829_ [_2512_ _2556_] _1__2_ d_lut_XOR2X1
A_2830_ [_0__0_ _2545_ _2512_] _2587_ d_lut_NAND3X1
A_2831_ [breg_2_] _2597_ d_lut_INVX4
A_2832_ [_2597_ _2523_] _2598_ d_lut_NOR2X1
A_2833_ [breg_0_ areg_3_bF$buf3] _2609_ d_lut_NAND2X1
A_2834_ [areg_0_bF$buf1 breg_1_] _2620_ d_lut_NAND2X1
A_2835_ [areg_2_bF$buf2 breg_3_bF$buf3] _2631_ d_lut_NAND2X1
A_2836_ [areg_0_bF$buf0 breg_3_bF$buf2] _2642_ d_lut_NAND2X1
A_2837_ [_2479_ _2534_ _2642_] _2653_ d_lut_OAI21X1
A_2838_ [_2620_ _2631_ _2653_] _2664_ d_lut_OAI21X1
A_2839_ [_2664_ _2609_] _2675_ d_lut_XOR2X1
A_2840_ [_2545_] _2686_ d_lut_INVX1
A_2841_ [_2512_ _2686_ _2468_] _2697_ d_lut_OAI21X1
A_2842_ [_2675_ _2697_] _2708_ d_lut_NOR2X1
A_2843_ [_2697_ _2675_] _2729_ d_lut_AND2X2
A_2844_ [_2708_ _2729_] _2730_ d_lut_NOR2X1
A_2845_ [_2730_ _2598_] _2741_ d_lut_XNOR2X1
A_2846_ [_2741_ _2587_] _1__3_ d_lut_XOR2X1
A_2847_ [_2587_ _2741_] _2761_ d_lut_NOR2X1
A_2848_ [_2598_] _2772_ d_lut_INVX1
A_2849_ [_2729_] _2783_ d_lut_INVX1
A_2850_ [_2708_ _2772_ _2783_] _2794_ d_lut_OAI21X1
A_2851_ [_2794_] _2805_ d_lut_INVX1
A_2852_ [breg_0_ areg_1_] _2_ d_lut_NAND2X1
A_2853_ [breg_3_bF$buf1 areg_4_bF$buf3] _13_ d_lut_NAND2X1
A_2854_ [breg_3_bF$buf0] _24_ d_lut_INVX4
A_2855_ [areg_4_bF$buf2] _35_ d_lut_INVX4
A_2856_ [_2447_ _35_ _2523_ _24_] _46_ d_lut_OAI22X1
A_2857_ [_2_ _13_ _46_] _57_ d_lut_OAI21X1
A_2858_ [_2620_ _2631_] _68_ d_lut_NOR2X1
A_2859_ [_2609_ _2664_] _79_ d_lut_NOR2X1
A_2860_ [areg_3_bF$buf2] _90_ d_lut_INVX1
A_2861_ [_2534_ _90_] _101_ d_lut_NOR2X1
A_2862_ [areg_2_bF$buf1 breg_4_bF$buf3] _112_ d_lut_NAND2X1
A_2863_ [breg_4_bF$buf2] _122_ d_lut_INVX4
A_2864_ [_2437_ _122_ _2597_ _2479_] _143_ d_lut_OAI22X1
A_2865_ [_2490_ _112_ _143_] _154_ d_lut_OAI21X1
A_2866_ [_154_ _101_] _155_ d_lut_XNOR2X1
A_2867_ [_68_ _79_ _155_] _166_ d_lut_OAI21X1
A_2868_ [_68_ _79_] _177_ d_lut_NOR2X1
A_2869_ [_101_] _188_ d_lut_INVX1
A_2870_ [_154_ _188_] _199_ d_lut_XNOR2X1
A_2871_ [_199_ _177_] _210_ d_lut_NAND2X1
A_2872_ [_166_ _210_] _221_ d_lut_NAND2X1
A_2873_ [_221_ _57_] _232_ d_lut_XNOR2X1
A_2874_ [_2805_ _232_] _243_ d_lut_NOR2X1
A_2875_ [_57_] _254_ d_lut_INVX2
A_2876_ [_221_ _254_] _265_ d_lut_XNOR2X1
A_2877_ [_2794_ _265_] _276_ d_lut_NOR2X1
A_2878_ [_276_ _243_] _287_ d_lut_NOR2X1
A_2879_ [_287_ _2761_] _1__4_ d_lut_XOR2X1
A_2880_ [_2_ _13_] _307_ d_lut_NOR2X1
A_2881_ [_199_ _177_] _318_ d_lut_NOR2X1
A_2882_ [_254_ _210_ _318_] _329_ d_lut_AOI21X1
A_2883_ [_329_] _340_ d_lut_INVX1
A_2884_ [areg_1_ breg_4_bF$buf1] _351_ d_lut_NAND2X1
A_2885_ [breg_0_ areg_5_bF$buf3] _362_ d_lut_NAND2X1
A_2886_ [breg_1_ areg_4_bF$buf1] _373_ d_lut_NAND2X1
A_2887_ [_362_ _373_] _384_ d_lut_XOR2X1
A_2888_ [_384_ _351_] _405_ d_lut_XNOR2X1
A_2889_ [_405_] _406_ d_lut_INVX2
A_2890_ [_2490_ _112_] _417_ d_lut_NOR2X1
A_2891_ [_101_ _143_ _417_] _428_ d_lut_AOI21X1
A_2892_ [_428_] _439_ d_lut_INVX1
A_2893_ [_2597_ _90_] _450_ d_lut_NOR2X1
A_2894_ [areg_0_bF$buf3 breg_5_bF$buf3] _461_ d_lut_NAND2X1
A_2895_ [_2631_ _461_] _472_ d_lut_XOR2X1
A_2896_ [_450_ _472_] _483_ d_lut_NAND2X1
A_2897_ [_450_] _493_ d_lut_INVX1
A_2898_ [_2631_ _461_] _504_ d_lut_NOR2X1
A_2899_ [_2631_ _461_] _515_ d_lut_AND2X2
A_2900_ [_515_ _504_ _493_] _526_ d_lut_OAI21X1
A_2901_ [_526_ _483_ _439_] _537_ d_lut_NAND3X1
A_2902_ [areg_2_bF$buf0 breg_5_bF$buf2] _548_ d_lut_NAND2X1
A_2903_ [breg_5_bF$buf1] _559_ d_lut_INVX4
A_2904_ [_2437_ _559_ _2631_] _570_ d_lut_OAI21X1
A_2905_ [_2642_ _548_ _570_] _581_ d_lut_OAI21X1
A_2906_ [_493_ _581_] _602_ d_lut_NOR2X1
A_2907_ [_450_ _472_] _613_ d_lut_NOR2X1
A_2908_ [_613_ _602_ _428_] _614_ d_lut_OAI21X1
A_2909_ [_537_ _614_] _625_ d_lut_NAND2X1
A_2910_ [_406_ _625_] _636_ d_lut_NOR2X1
A_2911_ [_636_] _647_ d_lut_INVX1
A_2912_ [_602_ _428_ _613_] _658_ d_lut_NOR3X1
A_2913_ [_526_ _483_ _439_] _669_ d_lut_AOI21X1
A_2914_ [_658_ _669_ _406_] _680_ d_lut_OAI21X1
A_2915_ [_340_ _680_ _647_] _690_ d_lut_NAND3X1
A_2916_ [_680_] _701_ d_lut_INVX1
A_2917_ [_701_ _636_ _329_] _712_ d_lut_OAI21X1
A_2918_ [_307_ _712_ _690_] _723_ d_lut_NAND3X1
A_2919_ [_307_] _734_ d_lut_INVX2
A_2920_ [_636_ _329_ _701_] _745_ d_lut_NOR3X1
A_2921_ [_680_ _647_ _340_] _756_ d_lut_AOI21X1
A_2922_ [_756_ _745_ _734_] _767_ d_lut_OAI21X1
A_2923_ [_723_ _767_] _778_ d_lut_NAND2X1
A_2924_ [_2761_ _287_] _789_ d_lut_NAND2X1
A_2925_ [_2805_ _232_ _789_] _800_ d_lut_OAI21X1
A_2926_ [_800_ _778_] _1__5_ d_lut_XNOR2X1
A_2927_ [_789_ _778_] _821_ d_lut_OR2X2
A_2928_ [_243_ _723_ _767_] _832_ d_lut_NAND3X1
A_2929_ [_756_ _734_ _690_] _843_ d_lut_OAI21X1
A_2930_ [_2523_ _559_] _863_ d_lut_NOR2X1
A_2931_ [areg_1_ breg_4_bF$buf0 _384_] _864_ d_lut_NAND3X1
A_2932_ [_362_ _373_ _864_] _875_ d_lut_OAI21X1
A_2933_ [_875_ _863_] _886_ d_lut_XNOR2X1
A_2934_ [_406_ _669_ _537_] _897_ d_lut_OAI21X1
A_2935_ [breg_0_ areg_6_] _908_ d_lut_NAND2X1
A_2936_ [breg_2_ areg_5_bF$buf2] _919_ d_lut_NAND2X1
A_2937_ [_373_ _919_] _930_ d_lut_NOR2X1
A_2938_ [breg_2_ areg_4_bF$buf0 breg_1_ areg_5_bF$buf1] _941_ d_lut_AOI22X1
A_2939_ [_930_ _941_ _908_] _952_ d_lut_OAI21X1
A_2940_ [_941_ _930_] _963_ d_lut_NOR2X1
A_2941_ [breg_0_ areg_6_ _963_] _974_ d_lut_NAND3X1
A_2942_ [_952_ _974_] _985_ d_lut_NAND2X1
A_2943_ [_450_ _570_ _504_] _996_ d_lut_AOI21X1
A_2944_ [breg_3_bF$buf3 areg_3_bF$buf1] _1007_ d_lut_NAND2X1
A_2945_ [areg_0_bF$buf2 breg_6_] _1018_ d_lut_NAND2X1
A_2946_ [_112_ _1018_] _1029_ d_lut_NOR2X1
A_2947_ [_112_ _1018_] _1039_ d_lut_AND2X2
A_2948_ [_1007_ _1029_ _1039_] _1050_ d_lut_NOR3X1
A_2949_ [_1007_] _1061_ d_lut_INVX2
A_2950_ [_112_ _1018_] _1072_ d_lut_OR2X2
A_2951_ [breg_6_] _1083_ d_lut_INVX4
A_2952_ [_2437_ _1083_ _112_] _1094_ d_lut_OAI21X1
A_2953_ [_1094_ _1072_ _1061_] _1115_ d_lut_AOI21X1
A_2954_ [_1115_ _996_ _1050_] _1126_ d_lut_NOR3X1
A_2955_ [_996_] _1127_ d_lut_INVX1
A_2956_ [_1061_ _1094_ _1072_] _1138_ d_lut_NAND3X1
A_2957_ [_1039_ _1029_ _1007_] _1149_ d_lut_OAI21X1
A_2958_ [_1149_ _1138_ _1127_] _1160_ d_lut_AOI21X1
A_2959_ [_1160_ _1126_ _985_] _1171_ d_lut_NOR3X1
A_2960_ [_963_ _908_] _1182_ d_lut_XNOR2X1
A_2961_ [_1149_ _1138_ _1127_] _1193_ d_lut_NAND3X1
A_2962_ [_1050_ _1115_ _996_] _1203_ d_lut_OAI21X1
A_2963_ [_1203_ _1193_ _1182_] _1214_ d_lut_AOI21X1
A_2964_ [_1171_ _1214_ _897_] _1225_ d_lut_OAI21X1
A_2965_ [_405_ _614_ _658_] _1236_ d_lut_AOI21X1
A_2966_ [_1182_ _1203_ _1193_] _1247_ d_lut_NAND3X1
A_2967_ [_1160_ _1126_ _985_] _1258_ d_lut_OAI21X1
A_2968_ [_1247_ _1258_ _1236_] _1269_ d_lut_NAND3X1
A_2969_ [_1269_ _1225_ _886_] _1280_ d_lut_AOI21X1
A_2970_ [_1280_] _1291_ d_lut_INVX1
A_2971_ [_1171_ _1214_ _1236_] _1302_ d_lut_NOR3X1
A_2972_ [_1247_ _1258_ _897_] _1313_ d_lut_AOI21X1
A_2973_ [_1302_ _1313_ _886_] _1324_ d_lut_OAI21X1
A_2974_ [_1291_ _1324_ _843_] _1335_ d_lut_NAND3X1
A_2975_ [_307_ _712_ _745_] _1346_ d_lut_AOI21X1
A_2976_ [_1324_] _1356_ d_lut_INVX2
A_2977_ [_1356_ _1280_ _1346_] _1367_ d_lut_OAI21X1
A_2978_ [_1367_ _1335_ _832_] _1378_ d_lut_NAND3X1
A_2979_ [_243_] _1399_ d_lut_INVX1
A_2980_ [_734_ _712_ _690_] _1400_ d_lut_NAND3X1
A_2981_ [_756_ _745_ _307_] _1411_ d_lut_OAI21X1
A_2982_ [_1400_ _1411_ _1399_] _1422_ d_lut_AOI21X1
A_2983_ [_1356_ _1280_ _843_] _1433_ d_lut_OAI21X1
A_2984_ [_1291_ _1324_ _1346_] _1444_ d_lut_NAND3X1
A_2985_ [_1433_ _1444_ _1422_] _1455_ d_lut_NAND3X1
A_2986_ [_1378_ _1455_ _821_] _1466_ d_lut_AOI21X1
A_2987_ [_778_ _789_] _1477_ d_lut_NOR2X1
A_2988_ [_1367_ _1335_ _1422_] _1487_ d_lut_NAND3X1
A_2989_ [_1433_ _1444_ _832_] _1498_ d_lut_NAND3X1
A_2990_ [_1498_ _1487_ _1477_] _1509_ d_lut_AOI21X1
A_2991_ [_1509_ _1466_] _1__6_ d_lut_NOR2X1
A_2992_ [_1498_ _1487_ _1477_] _1530_ d_lut_NAND3X1
A_2993_ [_1346_ _1280_ _1356_] _1541_ d_lut_NOR3X1
A_2994_ [_863_ _875_] _1552_ d_lut_NAND2X1
A_2995_ [_1552_] _1563_ d_lut_INVX2
A_2996_ [_1247_ _1258_ _897_] _1574_ d_lut_NAND3X1
A_2997_ [_1313_ _886_ _1574_] _1585_ d_lut_OAI21X1
A_2998_ [breg_6_ areg_7_bF$buf3] _1596_ d_lut_NAND2X1
A_2999_ [_2_ _1596_] _1607_ d_lut_NOR2X1
A_3000_ [_1607_] _1617_ d_lut_INVX2
A_3001_ [breg_0_ areg_7_bF$buf2] _1628_ d_lut_NAND2X1
A_3002_ [_2523_ _1083_ _1628_] _1639_ d_lut_OAI21X1
A_3003_ [_1617_ _1639_] _1650_ d_lut_AND2X2
A_3004_ [_373_ _919_ _974_] _1661_ d_lut_OAI21X1
A_3005_ [_1661_ _1650_] _1672_ d_lut_XOR2X1
A_3006_ [_985_ _1160_ _1193_] _1683_ d_lut_OAI21X1
A_3007_ [areg_6_] _1694_ d_lut_INVX4
A_3008_ [_2534_ _1694_] _1705_ d_lut_NOR2X1
A_3009_ [_1705_] _1725_ d_lut_INVX1
A_3010_ [_13_ _919_] _1736_ d_lut_XOR2X1
A_3011_ [_1736_ _1725_] _1737_ d_lut_XNOR2X1
A_3012_ [_1039_ _1007_ _1072_] _1748_ d_lut_OAI21X1
A_3013_ [areg_3_bF$buf0 breg_4_bF$buf3] _1759_ d_lut_NAND2X1
A_3014_ [_1759_] _1770_ d_lut_INVX2
A_3015_ [areg_2_bF$buf4 breg_5_bF$buf0] _1781_ d_lut_AND2X2
A_3016_ [areg_0_bF$buf1 breg_7_bF$buf3] _1792_ d_lut_AND2X2
A_3017_ [_1781_ _1792_] _1802_ d_lut_NAND2X1
A_3018_ [breg_7_bF$buf2] _1813_ d_lut_INVX4
A_3019_ [_2437_ _1813_ _548_] _1824_ d_lut_OAI21X1
A_3020_ [_1770_ _1824_ _1802_] _1835_ d_lut_NAND3X1
A_3021_ [areg_2_bF$buf3 breg_7_bF$buf1] _1846_ d_lut_NAND2X1
A_3022_ [_461_ _1846_] _1856_ d_lut_NOR2X1
A_3023_ [areg_0_bF$buf0 breg_7_bF$buf0 _1781_] _1867_ d_lut_AOI21X1
A_3024_ [_1867_ _1856_ _1759_] _1878_ d_lut_OAI21X1
A_3025_ [_1748_ _1835_ _1878_] _1889_ d_lut_NAND3X1
A_3026_ [_1061_ _1094_ _1029_] _1900_ d_lut_AOI21X1
A_3027_ [_2479_ _559_ _1792_] _1911_ d_lut_OAI21X1
A_3028_ [_2437_ _1813_ _1781_] _1921_ d_lut_OAI21X1
A_3029_ [_1911_ _1921_ _1759_] _1932_ d_lut_AOI21X1
A_3030_ [_1824_ _1802_ _1770_] _1943_ d_lut_AOI21X1
A_3031_ [_1932_ _1943_ _1900_] _1954_ d_lut_OAI21X1
A_3032_ [_1889_ _1954_ _1737_] _1965_ d_lut_NAND3X1
A_3033_ [_1736_ _1705_] _1976_ d_lut_XNOR2X1
A_3034_ [_1943_ _1900_ _1932_] _1986_ d_lut_NOR3X1
A_3035_ [_1835_ _1878_ _1748_] _1997_ d_lut_AOI21X1
A_3036_ [_1986_ _1997_ _1976_] _2008_ d_lut_OAI21X1
A_3037_ [_1965_ _2008_ _1683_] _2019_ d_lut_NAND3X1
A_3038_ [_1203_ _1182_ _1126_] _2029_ d_lut_AOI21X1
A_3039_ [_1932_ _1943_ _1748_] _2040_ d_lut_OAI21X1
A_3040_ [_1900_ _1835_ _1878_] _2051_ d_lut_NAND3X1
A_3041_ [_2040_ _2051_ _1976_] _2061_ d_lut_AOI21X1
A_3042_ [_1954_ _1889_ _1737_] _2072_ d_lut_AOI21X1
A_3043_ [_2061_ _2072_ _2029_] _2081_ d_lut_OAI21X1
A_3044_ [_1672_ _2081_ _2019_] _2082_ d_lut_NAND3X1
A_3045_ [_1661_ _1650_] _2083_ d_lut_XNOR2X1
A_3046_ [_2061_ _2072_ _2029_] _2084_ d_lut_NOR3X1
A_3047_ [_2008_ _1965_ _1683_] _2085_ d_lut_AOI21X1
A_3048_ [_2084_ _2085_ _2083_] _2086_ d_lut_OAI21X1
A_3049_ [_2082_ _2086_ _1585_] _2087_ d_lut_NAND3X1
A_3050_ [_886_] _2088_ d_lut_INVX1
A_3051_ [_1171_ _1214_ _1236_] _2089_ d_lut_OAI21X1
A_3052_ [_2089_ _2088_ _1302_] _2090_ d_lut_AOI21X1
A_3053_ [_2085_ _2083_ _2084_] _2091_ d_lut_NOR3X1
A_3054_ [_2081_ _2019_ _1672_] _2092_ d_lut_AOI21X1
A_3055_ [_2091_ _2092_ _2090_] _2093_ d_lut_OAI21X1
A_3056_ [_1563_ _2093_ _2087_] _2094_ d_lut_NAND3X1
A_3057_ [_2091_ _2092_ _2090_] _2095_ d_lut_NOR3X1
A_3058_ [_2082_ _2086_ _1585_] _2096_ d_lut_AOI21X1
A_3059_ [_2095_ _2096_ _1552_] _2097_ d_lut_OAI21X1
A_3060_ [_2094_ _1541_ _2097_] _2098_ d_lut_NAND3X1
A_3061_ [_1552_ _2093_ _2087_] _2099_ d_lut_NAND3X1
A_3062_ [_2095_ _2096_ _1563_] _2100_ d_lut_OAI21X1
A_3063_ [_2099_ _1335_ _2100_] _2101_ d_lut_NAND3X1
A_3064_ [_2098_ _1487_ _2101_] _2102_ d_lut_NAND3X1
A_3065_ [_1433_ _1444_ _832_] _2103_ d_lut_AOI21X1
A_3066_ [_2094_ _1335_ _2097_] _2104_ d_lut_NAND3X1
A_3067_ [_2099_ _1541_ _2100_] _2105_ d_lut_NAND3X1
A_3068_ [_2103_ _2104_ _2105_] _2106_ d_lut_NAND3X1
A_3069_ [_2106_ _2102_ _1530_] _2107_ d_lut_AOI21X1
A_3070_ [_2103_ _2098_ _2101_] _2108_ d_lut_NAND3X1
A_3071_ [_2104_ _1487_ _2105_] _2109_ d_lut_NAND3X1
A_3072_ [_2108_ _2109_ _1466_] _2110_ d_lut_AOI21X1
A_3073_ [_2107_ _2110_] _1__7_ d_lut_NOR2X1
A_3074_ [_2104_ _2105_ _1487_] _2111_ d_lut_AOI21X1
A_3075_ [_2096_ _1552_ _2087_] _2112_ d_lut_OAI21X1
A_3076_ [_1650_ _1661_] _2113_ d_lut_NAND2X1
A_3077_ [_2085_ _2083_ _2019_] _2114_ d_lut_OAI21X1
A_3078_ [breg_1_ areg_8_bF$buf3] _2115_ d_lut_NAND2X1
A_3079_ [areg_8_bF$buf2] _2116_ d_lut_INVX8
A_3080_ [breg_1_ areg_7_bF$buf1] _2117_ d_lut_NAND2X1
A_3081_ [_2447_ _2116_ _2117_] _2118_ d_lut_OAI21X1
A_3082_ [_1628_ _2115_ _2118_] _2119_ d_lut_OAI21X1
A_3083_ [_2523_ _1813_ _2119_] _2120_ d_lut_OAI21X1
A_3084_ [_2523_ _1813_] _2121_ d_lut_NOR2X1
A_3085_ [_1628_ _2115_] _2122_ d_lut_NOR2X1
A_3086_ [_2122_] _2123_ d_lut_INVX2
A_3087_ [_2121_ _2118_ _2123_] _2124_ d_lut_NAND3X1
A_3088_ [_13_ _919_] _2125_ d_lut_NOR2X1
A_3089_ [areg_5_bF$buf0] _2126_ d_lut_INVX2
A_3090_ [_2597_ _2126_ _13_] _2127_ d_lut_OAI21X1
A_3091_ [_1705_ _2127_ _2125_] _2128_ d_lut_AOI21X1
A_3092_ [_2128_] _2129_ d_lut_INVX1
A_3093_ [_2124_ _2120_ _2129_] _2130_ d_lut_NAND3X1
A_3094_ [_2118_ _2123_ _2121_] _2131_ d_lut_AOI21X1
A_3095_ [_2121_] _2132_ d_lut_INVX1
A_3096_ [_2132_ _2119_] _2133_ d_lut_NOR2X1
A_3097_ [_2133_ _2131_ _2128_] _2134_ d_lut_OAI21X1
A_3098_ [_1617_ _2130_ _2134_] _2135_ d_lut_NAND3X1
A_3099_ [_2128_ _2124_ _2120_] _2136_ d_lut_NAND3X1
A_3100_ [_2133_ _2131_ _2129_] _2137_ d_lut_OAI21X1
A_3101_ [_1607_ _2136_ _2137_] _2138_ d_lut_NAND3X1
A_3102_ [_2135_ _2138_] _2139_ d_lut_NAND2X1
A_3103_ [_1976_ _1997_ _1889_] _2140_ d_lut_OAI21X1
A_3104_ [breg_2_ areg_6_] _2141_ d_lut_NAND2X1
A_3105_ [_2141_] _2142_ d_lut_INVX1
A_3106_ [breg_3_bF$buf2 areg_5_bF$buf3] _2143_ d_lut_NAND2X1
A_3107_ [breg_4_bF$buf2 areg_4_bF$buf3] _2144_ d_lut_NAND2X1
A_3108_ [_2143_ _2144_] _2145_ d_lut_OR2X2
A_3109_ [_122_ _35_ _2143_] _2146_ d_lut_OAI21X1
A_3110_ [_2142_ _2146_ _2145_] _2147_ d_lut_NAND3X1
A_3111_ [_2143_ _2144_] _2148_ d_lut_NOR2X1
A_3112_ [_2143_ _2144_] _2149_ d_lut_AND2X2
A_3113_ [_2149_ _2148_ _2141_] _2150_ d_lut_OAI21X1
A_3114_ [_2147_ _2150_] _2151_ d_lut_AND2X2
A_3115_ [_1867_ _1759_ _1802_] _2152_ d_lut_OAI21X1
A_3116_ [areg_3_bF$buf3 breg_5_bF$buf3] _2153_ d_lut_NAND2X1
A_3117_ [_2153_] _2154_ d_lut_INVX2
A_3118_ [areg_2_bF$buf2 breg_6_] _2155_ d_lut_AND2X2
A_3119_ [areg_0_bF$buf3 breg_8_bF$buf3] _2156_ d_lut_AND2X2
A_3120_ [_2155_ _2156_] _2157_ d_lut_NAND2X1
A_3121_ [breg_8_bF$buf2] _2158_ d_lut_INVX4
A_3122_ [areg_2_bF$buf1 breg_6_] _2159_ d_lut_NAND2X1
A_3123_ [_2437_ _2158_ _2159_] _2160_ d_lut_OAI21X1
A_3124_ [_2154_ _2160_ _2157_] _2161_ d_lut_NAND3X1
A_3125_ [areg_0_bF$buf2 breg_8_bF$buf1] _2162_ d_lut_NAND2X1
A_3126_ [_2159_ _2162_] _2163_ d_lut_NOR2X1
A_3127_ [_2155_ _2156_] _2164_ d_lut_NOR2X1
A_3128_ [_2164_ _2163_ _2153_] _2165_ d_lut_OAI21X1
A_3129_ [_2161_ _2152_ _2165_] _2166_ d_lut_NAND3X1
A_3130_ [_1770_ _1824_ _1856_] _2167_ d_lut_AOI21X1
A_3131_ [_2479_ _1083_ _2156_] _2168_ d_lut_OAI21X1
A_3132_ [_2437_ _2158_ _2155_] _2169_ d_lut_OAI21X1
A_3133_ [_2168_ _2169_ _2153_] _2170_ d_lut_AOI21X1
A_3134_ [_2160_ _2157_ _2154_] _2171_ d_lut_AOI21X1
A_3135_ [_2170_ _2171_ _2167_] _2172_ d_lut_OAI21X1
A_3136_ [_2151_ _2166_ _2172_] _2173_ d_lut_NAND3X1
A_3137_ [_2150_ _2147_] _2174_ d_lut_NAND2X1
A_3138_ [_2171_ _2167_ _2170_] _2175_ d_lut_NOR3X1
A_3139_ [_2161_ _2165_ _2152_] _2176_ d_lut_AOI21X1
A_3140_ [_2175_ _2176_ _2174_] _2177_ d_lut_OAI21X1
A_3141_ [_2173_ _2177_ _2140_] _2178_ d_lut_NAND3X1
A_3142_ [_1954_ _1737_ _1986_] _2179_ d_lut_AOI21X1
A_3143_ [_2170_ _2171_ _2152_] _2180_ d_lut_OAI21X1
A_3144_ [_2167_ _2161_ _2165_] _2181_ d_lut_NAND3X1
A_3145_ [_2180_ _2181_ _2174_] _2182_ d_lut_AOI21X1
A_3146_ [_2172_ _2166_ _2151_] _2183_ d_lut_AOI21X1
A_3147_ [_2183_ _2182_ _2179_] _2184_ d_lut_OAI21X1
A_3148_ [_2184_ _2178_ _2139_] _2185_ d_lut_NAND3X1
A_3149_ [_1607_ _2130_ _2134_] _2186_ d_lut_NAND3X1
A_3150_ [_1617_ _2136_ _2137_] _2187_ d_lut_NAND3X1
A_3151_ [_2186_ _2187_] _2188_ d_lut_NAND2X1
A_3152_ [_2182_ _2183_ _2179_] _2189_ d_lut_NOR3X1
A_3153_ [_2173_ _2177_ _2140_] _2190_ d_lut_AOI21X1
A_3154_ [_2189_ _2190_ _2188_] _2191_ d_lut_OAI21X1
A_3155_ [_2185_ _2191_ _2114_] _2192_ d_lut_AOI21X1
A_3156_ [_1672_ _2081_ _2084_] _2193_ d_lut_AOI21X1
A_3157_ [_2183_ _2182_ _2140_] _2194_ d_lut_OAI21X1
A_3158_ [_2173_ _2177_ _2179_] _2195_ d_lut_NAND3X1
A_3159_ [_2194_ _2195_ _2188_] _2196_ d_lut_AOI21X1
A_3160_ [_2184_ _2178_ _2139_] _2197_ d_lut_AOI21X1
A_3161_ [_2196_ _2197_ _2193_] _2198_ d_lut_NOR3X1
A_3162_ [_2198_ _2192_ _2113_] _2199_ d_lut_OAI21X1
A_3163_ [_2113_] _2200_ d_lut_INVX2
A_3164_ [_2196_ _2197_ _2193_] _2201_ d_lut_OAI21X1
A_3165_ [_2114_ _2185_ _2191_] _2202_ d_lut_NAND3X1
A_3166_ [_2200_ _2201_ _2202_] _2203_ d_lut_NAND3X1
A_3167_ [_2203_ _2199_ _2112_] _2204_ d_lut_NAND3X1
A_3168_ [_1563_ _2093_ _2095_] _2205_ d_lut_AOI21X1
A_3169_ [_2201_ _2202_ _2200_] _2206_ d_lut_AOI21X1
A_3170_ [_2192_ _2113_ _2198_] _2207_ d_lut_NOR3X1
A_3171_ [_2207_ _2206_ _2205_] _2208_ d_lut_OAI21X1
A_3172_ [_2204_ _2208_ _2098_] _2209_ d_lut_NAND3X1
A_3173_ [_2099_ _2100_ _1335_] _2210_ d_lut_AOI21X1
A_3174_ [_2207_ _2206_ _2112_] _2211_ d_lut_OAI21X1
A_3175_ [_2199_ _2203_ _2205_] _2212_ d_lut_NAND3X1
A_3176_ [_2212_ _2211_ _2210_] _2213_ d_lut_NAND3X1
A_3177_ [_2209_ _2213_ _2111_] _2214_ d_lut_AOI21X1
A_3178_ [_2212_ _2211_ _2210_] _2215_ d_lut_AOI21X1
A_3179_ [_2204_ _2208_ _2098_] _2216_ d_lut_AOI21X1
A_3180_ [_2108_ _2216_ _2215_] _2217_ d_lut_NOR3X1
A_3181_ [_2214_ _2217_] _2218_ d_lut_NOR2X1
A_3182_ [_2218_ _2107_] _1__8_ d_lut_XNOR2X1
A_3183_ [_2108_ _2109_ _1466_] _2219_ d_lut_NAND3X1
A_3184_ [_2215_ _2216_ _2111_] _2220_ d_lut_OAI21X1
A_3185_ [_2218_ _2219_ _2220_] _2221_ d_lut_OAI21X1
A_3186_ [_2211_ _2212_ _2098_] _2222_ d_lut_AOI21X1
A_3187_ [_2207_ _2206_ _2205_] _2223_ d_lut_NOR3X1
A_3188_ [_2192_ _2113_ _2202_] _2224_ d_lut_OAI21X1
A_3189_ [_2523_ _2158_] _2225_ d_lut_NOR2X1
A_3190_ [_2130_ _2186_] _2226_ d_lut_NAND2X1
A_3191_ [_2226_ _2225_] _2227_ d_lut_XOR2X1
A_3192_ [_2190_ _2188_ _2178_] _2228_ d_lut_OAI21X1
A_3193_ [_2119_ _2132_ _2123_] _2229_ d_lut_OAI21X1
A_3194_ [_2229_] _2230_ d_lut_INVX1
A_3195_ [breg_0_ areg_9_] _2231_ d_lut_NAND2X1
A_3196_ [breg_2_ areg_8_bF$buf1] _2232_ d_lut_NAND2X1
A_3197_ [_2117_ _2232_] _2233_ d_lut_NOR2X1
A_3198_ [breg_2_ areg_7_bF$buf0] _2234_ d_lut_NAND2X1
A_3199_ [_2115_ _2234_] _2235_ d_lut_AND2X2
A_3200_ [_2235_ _2233_ _2231_] _2236_ d_lut_OAI21X1
A_3201_ [_2231_] _2237_ d_lut_INVX1
A_3202_ [_2115_ _2234_] _2238_ d_lut_OR2X2
A_3203_ [areg_7_bF$buf3] _2239_ d_lut_INVX8
A_3204_ [_2597_ _2239_ _2115_] _2240_ d_lut_OAI21X1
A_3205_ [_2237_ _2240_ _2238_] _2241_ d_lut_NAND3X1
A_3206_ [_2149_ _2141_ _2145_] _2242_ d_lut_OAI21X1
A_3207_ [_2242_ _2241_ _2236_] _2243_ d_lut_NAND3X1
A_3208_ [_2240_ _2238_ _2237_] _2244_ d_lut_AOI21X1
A_3209_ [_2231_ _2233_ _2235_] _2245_ d_lut_NOR3X1
A_3210_ [_2142_ _2146_ _2148_] _2246_ d_lut_AOI21X1
A_3211_ [_2245_ _2244_ _2246_] _2247_ d_lut_OAI21X1
A_3212_ [_2243_ _2247_ _2230_] _2248_ d_lut_NAND3X1
A_3213_ [_2246_ _2236_ _2241_] _2249_ d_lut_NAND3X1
A_3214_ [_2245_ _2244_ _2242_] _2250_ d_lut_OAI21X1
A_3215_ [_2229_ _2249_ _2250_] _2251_ d_lut_NAND3X1
A_3216_ [_2251_ _2248_] _2252_ d_lut_NAND2X1
A_3217_ [_2176_ _2174_ _2166_] _2253_ d_lut_OAI21X1
A_3218_ [_24_ _1694_] _2254_ d_lut_NOR2X1
A_3219_ [breg_4_bF$buf1 areg_4_bF$buf2] _2255_ d_lut_AND2X2
A_3220_ [breg_5_bF$buf2 areg_5_bF$buf2] _2256_ d_lut_AND2X2
A_3221_ [breg_4_bF$buf0 areg_5_bF$buf1 areg_4_bF$buf1 breg_5_bF$buf1] _2257_ d_lut_AOI22X1
A_3222_ [_2255_ _2256_ _2257_] _2258_ d_lut_AOI21X1
A_3223_ [_2258_ _2254_] _2259_ d_lut_XOR2X1
A_3224_ [_2164_ _2153_ _2157_] _2260_ d_lut_OAI21X1
A_3225_ [areg_3_bF$buf2 breg_6_] _2261_ d_lut_NAND2X1
A_3226_ [_2261_] _2262_ d_lut_INVX2
A_3227_ [areg_2_bF$buf0 breg_7_bF$buf3] _2263_ d_lut_AND2X2
A_3228_ [areg_0_bF$buf1 breg_9_bF$buf3] _2264_ d_lut_AND2X2
A_3229_ [_2263_ _2264_] _2265_ d_lut_NAND2X1
A_3230_ [breg_9_bF$buf2] _2266_ d_lut_INVX8
A_3231_ [_2437_ _2266_ _1846_] _2267_ d_lut_OAI21X1
A_3232_ [_2262_ _2267_ _2265_] _2268_ d_lut_NAND3X1
A_3233_ [areg_0_bF$buf0 breg_9_bF$buf1] _2269_ d_lut_NAND2X1
A_3234_ [_1846_ _2269_] _2270_ d_lut_NOR2X1
A_3235_ [_2263_ _2264_] _2271_ d_lut_NOR2X1
A_3236_ [_2271_ _2270_ _2261_] _2272_ d_lut_OAI21X1
A_3237_ [_2268_ _2260_ _2272_] _2273_ d_lut_NAND3X1
A_3238_ [_2154_ _2160_ _2163_] _2274_ d_lut_AOI21X1
A_3239_ [_2479_ _1813_ _2264_] _2275_ d_lut_OAI21X1
A_3240_ [_2437_ _2266_ _2263_] _2276_ d_lut_OAI21X1
A_3241_ [_2275_ _2276_ _2261_] _2277_ d_lut_AOI21X1
A_3242_ [_2267_ _2265_ _2262_] _2278_ d_lut_AOI21X1
A_3243_ [_2277_ _2278_ _2274_] _2279_ d_lut_OAI21X1
A_3244_ [_2259_ _2279_ _2273_] _2280_ d_lut_NAND3X1
A_3245_ [_2258_ _2254_] _2281_ d_lut_XNOR2X1
A_3246_ [_2277_ _2278_ _2260_] _2282_ d_lut_OAI21X1
A_3247_ [_2274_ _2268_ _2272_] _2283_ d_lut_NAND3X1
A_3248_ [_2281_ _2282_ _2283_] _2284_ d_lut_NAND3X1
A_3249_ [_2280_ _2284_ _2253_] _2285_ d_lut_NAND3X1
A_3250_ [_2172_ _2151_ _2175_] _2286_ d_lut_AOI21X1
A_3251_ [_2282_ _2283_ _2281_] _2287_ d_lut_AOI21X1
A_3252_ [_2279_ _2273_ _2259_] _2288_ d_lut_AOI21X1
A_3253_ [_2288_ _2287_ _2286_] _2289_ d_lut_OAI21X1
A_3254_ [_2252_ _2285_ _2289_] _2290_ d_lut_NAND3X1
A_3255_ [_2248_ _2251_] _2291_ d_lut_AND2X2
A_3256_ [_2288_ _2287_ _2253_] _2292_ d_lut_OAI21X1
A_3257_ [_2284_ _2280_ _2286_] _2293_ d_lut_NAND3X1
A_3258_ [_2293_ _2292_ _2291_] _2294_ d_lut_NAND3X1
A_3259_ [_2290_ _2294_ _2228_] _2295_ d_lut_NAND3X1
A_3260_ [_2139_ _2184_ _2189_] _2296_ d_lut_AOI21X1
A_3261_ [_2293_ _2292_ _2291_] _2297_ d_lut_AOI21X1
A_3262_ [_2285_ _2289_ _2252_] _2298_ d_lut_AOI21X1
A_3263_ [_2297_ _2298_ _2296_] _2299_ d_lut_OAI21X1
A_3264_ [_2227_ _2299_ _2295_] _2300_ d_lut_NAND3X1
A_3265_ [_2226_ _2225_] _2301_ d_lut_XNOR2X1
A_3266_ [_2297_ _2298_ _2296_] _2302_ d_lut_NOR3X1
A_3267_ [_2290_ _2294_ _2228_] _2303_ d_lut_AOI21X1
A_3268_ [_2302_ _2303_ _2301_] _2304_ d_lut_OAI21X1
A_3269_ [_2300_ _2224_ _2304_] _2305_ d_lut_NAND3X1
A_3270_ [_2200_ _2201_ _2198_] _2306_ d_lut_AOI21X1
A_3271_ [_2301_ _2303_ _2302_] _2307_ d_lut_NOR3X1
A_3272_ [_2299_ _2295_ _2227_] _2308_ d_lut_AOI21X1
A_3273_ [_2307_ _2308_ _2306_] _2309_ d_lut_OAI21X1
A_3274_ [_2305_ _2309_ _2223_] _2310_ d_lut_NAND3X1
A_3275_ [_2306_ _2308_ _2307_] _2311_ d_lut_NOR3X1
A_3276_ [_2300_ _2304_ _2224_] _2312_ d_lut_AOI21X1
A_3277_ [_2311_ _2312_ _2204_] _2313_ d_lut_OAI21X1
A_3278_ [_2222_ _2313_ _2310_] _2314_ d_lut_NAND3X1
A_3279_ [_2204_ _2208_ _2210_] _2315_ d_lut_NAND3X1
A_3280_ [_2305_ _2309_ _2204_] _2316_ d_lut_NAND3X1
A_3281_ [_2311_ _2312_ _2223_] _2317_ d_lut_OAI21X1
A_3282_ [_2316_ _2317_ _2315_] _2318_ d_lut_NAND3X1
A_3283_ [_2318_ _2314_] _2319_ d_lut_NAND2X1
A_3284_ [_2221_ _2319_] _1__9_ d_lut_XNOR2X1
A_3285_ [_2215_ _2216_ _2108_] _2320_ d_lut_OAI21X1
A_3286_ [_2209_ _2213_ _2111_] _2321_ d_lut_NAND3X1
A_3287_ [_2321_ _2320_ _2219_] _2322_ d_lut_AOI21X1
A_3288_ [_2314_ _2318_] _2323_ d_lut_AND2X2
A_3289_ [_2314_ _2220_] _2324_ d_lut_NAND2X1
A_3290_ [_2318_ _2324_ _2322_ _2323_] _2325_ d_lut_AOI22X1
A_3291_ [_2225_ _2226_] _2326_ d_lut_NAND2X1
A_3292_ [_2326_] _2327_ d_lut_INVX2
A_3293_ [_2303_ _2301_ _2295_] _2328_ d_lut_OAI21X1
A_3294_ [breg_9_bF$buf0 areg_10_bF$buf3] _2329_ d_lut_NAND2X1
A_3295_ [breg_0_ areg_10_bF$buf2] _2330_ d_lut_NAND2X1
A_3296_ [_2523_ _2266_ _2330_] _2331_ d_lut_OAI21X1
A_3297_ [_2_ _2329_ _2331_] _2332_ d_lut_OAI21X1
A_3298_ [_2332_] _2333_ d_lut_INVX2