* XSpice netlist created from SPICE and liberty sources by spi2xspice.py
*SPICE netlist created from verilog structural netlist module multiplierBeh by vlog2Spice (qflow)
** Start of included library /usr/local/share/qflow/tech/osu018/osu018_stdcells.sp
** End of included library /usr/local/share/qflow/tech/osu018/osu018_stdcells.sp
.subckt multiplierBeh a_vdd a_gnd a_a_0_ a_a_1_ a_a_2_ a_a_3_ a_a_4_ a_a_5_ a_a_6_ a_a_7_ a_a_8_ a_a_9_ a_a_10_ a_a_11_ a_a_12_ a_a_13_ a_a_14_ a_a_15_ a_a_16_ a_a_17_ a_a_18_ a_a_19_ a_a_20_ a_a_21_ a_a_22_ a_a_23_ a_a_24_ a_a_25_ a_a_26_ a_a_27_ a_a_28_ a_a_29_ a_a_30_ a_a_31_ a_b_0_ a_b_1_ a_b_2_ a_b_3_ a_b_4_ a_b_5_ a_b_6_ a_b_7_ a_b_8_ a_b_9_ a_b_10_ a_b_11_ a_b_12_ a_b_13_ a_b_14_ a_b_15_ a_b_16_ a_b_17_ a_b_18_ a_b_19_ a_b_20_ a_b_21_ a_b_22_ a_b_23_ a_b_24_ a_b_25_ a_b_26_ a_b_27_ a_b_28_ a_b_29_ a_b_30_ a_b_31_ a_clk a_y_0_ a_y_1_ a_y_2_ a_y_3_ a_y_4_ a_y_5_ a_y_6_ a_y_7_ a_y_8_ a_y_9_ a_y_10_ a_y_11_ a_y_12_ a_y_13_ a_y_14_ a_y_15_ a_y_16_ a_y_17_ a_y_18_ a_y_19_ a_y_20_ a_y_21_ a_y_22_ a_y_23_ a_y_24_ a_y_25_ a_y_26_ a_y_27_ a_y_28_ a_y_29_ a_y_30_ a_y_31_ a_y_32_ a_y_33_ a_y_34_ a_y_35_ a_y_36_ a_y_37_ a_y_38_ a_y_39_ a_y_40_ a_y_41_ a_y_42_ a_y_43_ a_y_44_ a_y_45_ a_y_46_ a_y_47_ a_y_48_ a_y_49_ a_y_50_ a_y_51_ a_y_52_ a_y_53_ a_y_54_ a_y_55_ a_y_56_ a_y_57_ a_y_58_ a_y_59_ a_y_60_ a_y_61_ a_y_62_ a_y_63_
ABUFX2_insert536 [areg_30_] areg_30_bF$buf0 d_lut_BUFX2
ABUFX2_insert535 [areg_30_] areg_30_bF$buf1 d_lut_BUFX2
ABUFX2_insert534 [areg_30_] areg_30_bF$buf2 d_lut_BUFX2
ABUFX2_insert533 [areg_30_] areg_30_bF$buf3 d_lut_BUFX2
ABUFX2_insert532 [areg_30_] areg_30_bF$buf4 d_lut_BUFX2
ABUFX2_insert531 [areg_30_] areg_30_bF$buf5 d_lut_BUFX2
ABUFX2_insert530 [_2465_] _2465__bF$buf0 d_lut_BUFX2
ABUFX2_insert529 [_2465_] _2465__bF$buf1 d_lut_BUFX2
ABUFX2_insert528 [_2465_] _2465__bF$buf2 d_lut_BUFX2
ABUFX2_insert527 [_2465_] _2465__bF$buf3 d_lut_BUFX2
ABUFX2_insert526 [_2465_] _2465__bF$buf4 d_lut_BUFX2
ABUFX2_insert525 [_2562_] _2562__bF$buf0 d_lut_BUFX2
ABUFX2_insert524 [_2562_] _2562__bF$buf1 d_lut_BUFX2
ABUFX2_insert523 [_2562_] _2562__bF$buf2 d_lut_BUFX2
ABUFX2_insert522 [_2562_] _2562__bF$buf3 d_lut_BUFX2
ABUFX2_insert521 [_2562_] _2562__bF$buf4 d_lut_BUFX2
ABUFX2_insert520 [_3958_] _3958__bF$buf0 d_lut_BUFX2
ABUFX2_insert519 [_3958_] _3958__bF$buf1 d_lut_BUFX2
ABUFX2_insert518 [_3958_] _3958__bF$buf2 d_lut_BUFX2
ABUFX2_insert517 [_3958_] _3958__bF$buf3 d_lut_BUFX2
ABUFX2_insert516 [_3253_] _3253__bF$buf0 d_lut_BUFX2
ABUFX2_insert515 [_3253_] _3253__bF$buf1 d_lut_BUFX2
ABUFX2_insert514 [_3253_] _3253__bF$buf2 d_lut_BUFX2
ABUFX2_insert513 [_3253_] _3253__bF$buf3 d_lut_BUFX2
ABUFX2_insert512 [_3961_] _3961__bF$buf0 d_lut_BUFX2
ABUFX2_insert511 [_3961_] _3961__bF$buf1 d_lut_BUFX2
ABUFX2_insert510 [_3961_] _3961__bF$buf2 d_lut_BUFX2
ABUFX2_insert509 [_3961_] _3961__bF$buf3 d_lut_BUFX2
ABUFX2_insert508 [_3961_] _3961__bF$buf4 d_lut_BUFX2
ABUFX2_insert507 [_10869_] _10869__bF$buf0 d_lut_BUFX2
ABUFX2_insert506 [_10869_] _10869__bF$buf1 d_lut_BUFX2
ABUFX2_insert505 [_10869_] _10869__bF$buf2 d_lut_BUFX2
ABUFX2_insert504 [_10869_] _10869__bF$buf3 d_lut_BUFX2
ABUFX2_insert503 [_5190_] _5190__bF$buf0 d_lut_BUFX2
ABUFX2_insert502 [_5190_] _5190__bF$buf1 d_lut_BUFX2
ABUFX2_insert501 [_5190_] _5190__bF$buf2 d_lut_BUFX2
ABUFX2_insert500 [_5190_] _5190__bF$buf3 d_lut_BUFX2
ABUFX2_insert499 [breg_11_] breg_11_bF$buf0 d_lut_BUFX2
ABUFX2_insert498 [breg_11_] breg_11_bF$buf1 d_lut_BUFX2
ABUFX2_insert497 [breg_11_] breg_11_bF$buf2 d_lut_BUFX2
ABUFX2_insert496 [breg_11_] breg_11_bF$buf3 d_lut_BUFX2
ABUFX2_insert495 [breg_11_] breg_11_bF$buf4 d_lut_BUFX2
ABUFX2_insert494 [_6686_] _6686__bF$buf0 d_lut_BUFX2
ABUFX2_insert493 [_6686_] _6686__bF$buf1 d_lut_BUFX2
ABUFX2_insert492 [_6686_] _6686__bF$buf2 d_lut_BUFX2
ABUFX2_insert491 [_6686_] _6686__bF$buf3 d_lut_BUFX2
ABUFX2_insert490 [breg_2_] breg_2_bF$buf0 d_lut_BUFX2
ABUFX2_insert489 [breg_2_] breg_2_bF$buf1 d_lut_BUFX2
ABUFX2_insert488 [breg_2_] breg_2_bF$buf2 d_lut_BUFX2
ABUFX2_insert487 [breg_2_] breg_2_bF$buf3 d_lut_BUFX2
ABUFX2_insert486 [breg_2_] breg_2_bF$buf4 d_lut_BUFX2
ABUFX2_insert485 [breg_14_] breg_14_bF$buf0 d_lut_BUFX2
ABUFX2_insert484 [breg_14_] breg_14_bF$buf1 d_lut_BUFX2
ABUFX2_insert483 [breg_14_] breg_14_bF$buf2 d_lut_BUFX2
ABUFX2_insert482 [breg_14_] breg_14_bF$buf3 d_lut_BUFX2
ABUFX2_insert481 [breg_5_] breg_5_bF$buf0 d_lut_BUFX2
ABUFX2_insert480 [breg_5_] breg_5_bF$buf1 d_lut_BUFX2
ABUFX2_insert479 [breg_5_] breg_5_bF$buf2 d_lut_BUFX2
ABUFX2_insert478 [breg_5_] breg_5_bF$buf3 d_lut_BUFX2
ABUFX2_insert477 [breg_17_] breg_17_bF$buf0 d_lut_BUFX2
ABUFX2_insert476 [breg_17_] breg_17_bF$buf1 d_lut_BUFX2
ABUFX2_insert475 [breg_17_] breg_17_bF$buf2 d_lut_BUFX2
ABUFX2_insert474 [breg_17_] breg_17_bF$buf3 d_lut_BUFX2
ABUFX2_insert473 [breg_17_] breg_17_bF$buf4 d_lut_BUFX2
ABUFX2_insert472 [breg_20_] breg_20_bF$buf0 d_lut_BUFX2
ABUFX2_insert471 [breg_20_] breg_20_bF$buf1 d_lut_BUFX2
ABUFX2_insert470 [breg_20_] breg_20_bF$buf2 d_lut_BUFX2
ABUFX2_insert469 [breg_20_] breg_20_bF$buf3 d_lut_BUFX2
ABUFX2_insert468 [breg_20_] breg_20_bF$buf4 d_lut_BUFX2
ABUFX2_insert467 [areg_10_] areg_10_bF$buf0 d_lut_BUFX2
ABUFX2_insert466 [areg_10_] areg_10_bF$buf1 d_lut_BUFX2
ABUFX2_insert465 [areg_10_] areg_10_bF$buf2 d_lut_BUFX2
ABUFX2_insert464 [areg_10_] areg_10_bF$buf3 d_lut_BUFX2
ABUFX2_insert463 [areg_10_] areg_10_bF$buf4 d_lut_BUFX2
ABUFX2_insert462 [breg_23_] breg_23_bF$buf0 d_lut_BUFX2
ABUFX2_insert461 [breg_23_] breg_23_bF$buf1 d_lut_BUFX2
ABUFX2_insert460 [breg_23_] breg_23_bF$buf2 d_lut_BUFX2
ABUFX2_insert459 [breg_23_] breg_23_bF$buf3 d_lut_BUFX2
ABUFX2_insert458 [areg_13_] areg_13_bF$buf0 d_lut_BUFX2
ABUFX2_insert457 [areg_13_] areg_13_bF$buf1 d_lut_BUFX2
ABUFX2_insert456 [areg_13_] areg_13_bF$buf2 d_lut_BUFX2
ABUFX2_insert455 [areg_13_] areg_13_bF$buf3 d_lut_BUFX2
ABUFX2_insert454 [areg_13_] areg_13_bF$buf4 d_lut_BUFX2
ABUFX2_insert453 [_5420_] _5420__bF$buf0 d_lut_BUFX2
ABUFX2_insert452 [_5420_] _5420__bF$buf1 d_lut_BUFX2
ABUFX2_insert451 [_5420_] _5420__bF$buf2 d_lut_BUFX2
ABUFX2_insert450 [_5420_] _5420__bF$buf3 d_lut_BUFX2
ABUFX2_insert449 [breg_26_] breg_26_bF$buf0 d_lut_BUFX2
ABUFX2_insert448 [breg_26_] breg_26_bF$buf1 d_lut_BUFX2
ABUFX2_insert447 [breg_26_] breg_26_bF$buf2 d_lut_BUFX2
ABUFX2_insert446 [breg_26_] breg_26_bF$buf3 d_lut_BUFX2
ABUFX2_insert445 [breg_26_] breg_26_bF$buf4 d_lut_BUFX2
ABUFX2_insert444 [areg_16_] areg_16_bF$buf0 d_lut_BUFX2
ABUFX2_insert443 [areg_16_] areg_16_bF$buf1 d_lut_BUFX2
ABUFX2_insert442 [areg_16_] areg_16_bF$buf2 d_lut_BUFX2
ABUFX2_insert441 [areg_16_] areg_16_bF$buf3 d_lut_BUFX2
ABUFX2_insert440 [areg_16_] areg_16_bF$buf4 d_lut_BUFX2
ABUFX2_insert439 [areg_16_] areg_16_bF$buf5 d_lut_BUFX2
ABUFX2_insert438 [_4541_] _4541__bF$buf0 d_lut_BUFX2
ABUFX2_insert437 [_4541_] _4541__bF$buf1 d_lut_BUFX2
ABUFX2_insert436 [_4541_] _4541__bF$buf2 d_lut_BUFX2
ABUFX2_insert435 [_4541_] _4541__bF$buf3 d_lut_BUFX2
ABUFX2_insert434 [_4541_] _4541__bF$buf4 d_lut_BUFX2
ABUFX2_insert433 [_2586_] _2586__bF$buf0 d_lut_BUFX2
ABUFX2_insert432 [_2586_] _2586__bF$buf1 d_lut_BUFX2
ABUFX2_insert431 [_2586_] _2586__bF$buf2 d_lut_BUFX2
ABUFX2_insert430 [_2586_] _2586__bF$buf3 d_lut_BUFX2
ABUFX2_insert429 [_2586_] _2586__bF$buf4 d_lut_BUFX2
ABUFX2_insert428 [breg_29_] breg_29_bF$buf0 d_lut_BUFX2
ABUFX2_insert427 [breg_29_] breg_29_bF$buf1 d_lut_BUFX2
ABUFX2_insert426 [breg_29_] breg_29_bF$buf2 d_lut_BUFX2
ABUFX2_insert425 [breg_29_] breg_29_bF$buf3 d_lut_BUFX2
ABUFX2_insert424 [breg_29_] breg_29_bF$buf4 d_lut_BUFX2
ABUFX2_insert423 [areg_2_] areg_2_bF$buf0 d_lut_BUFX2
ABUFX2_insert422 [areg_2_] areg_2_bF$buf1 d_lut_BUFX2
ABUFX2_insert421 [areg_2_] areg_2_bF$buf2 d_lut_BUFX2
ABUFX2_insert420 [areg_2_] areg_2_bF$buf3 d_lut_BUFX2
ABUFX2_insert419 [areg_2_] areg_2_bF$buf4 d_lut_BUFX2
ABUFX2_insert418 [_7225_] _7225__bF$buf0 d_lut_BUFX2
ABUFX2_insert417 [_7225_] _7225__bF$buf1 d_lut_BUFX2
ABUFX2_insert416 [_7225_] _7225__bF$buf2 d_lut_BUFX2
ABUFX2_insert415 [_7225_] _7225__bF$buf3 d_lut_BUFX2
ABUFX2_insert414 [_7225_] _7225__bF$buf4 d_lut_BUFX2
ABUFX2_insert413 [_2551_] _2551__bF$buf0 d_lut_BUFX2
ABUFX2_insert412 [_2551_] _2551__bF$buf1 d_lut_BUFX2
ABUFX2_insert411 [_2551_] _2551__bF$buf2 d_lut_BUFX2
ABUFX2_insert410 [_2551_] _2551__bF$buf3 d_lut_BUFX2
ABUFX2_insert409 [areg_19_] areg_19_bF$buf0 d_lut_BUFX2
ABUFX2_insert408 [areg_19_] areg_19_bF$buf1 d_lut_BUFX2
ABUFX2_insert407 [areg_19_] areg_19_bF$buf2 d_lut_BUFX2
ABUFX2_insert406 [areg_19_] areg_19_bF$buf3 d_lut_BUFX2
ABUFX2_insert405 [areg_19_] areg_19_bF$buf4 d_lut_BUFX2
ABUFX2_insert404 [areg_19_] areg_19_bF$buf5 d_lut_BUFX2
ABUFX2_insert403 [areg_22_] areg_22_bF$buf0 d_lut_BUFX2
ABUFX2_insert402 [areg_22_] areg_22_bF$buf1 d_lut_BUFX2
ABUFX2_insert401 [areg_22_] areg_22_bF$buf2 d_lut_BUFX2
ABUFX2_insert400 [areg_22_] areg_22_bF$buf3 d_lut_BUFX2
ABUFX2_insert399 [areg_22_] areg_22_bF$buf4 d_lut_BUFX2
ABUFX2_insert398 [areg_5_] areg_5_bF$buf0 d_lut_BUFX2
ABUFX2_insert397 [areg_5_] areg_5_bF$buf1 d_lut_BUFX2
ABUFX2_insert396 [areg_5_] areg_5_bF$buf2 d_lut_BUFX2
ABUFX2_insert395 [areg_5_] areg_5_bF$buf3 d_lut_BUFX2
ABUFX2_insert394 [areg_5_] areg_5_bF$buf4 d_lut_BUFX2
ABUFX2_insert393 [areg_25_] areg_25_bF$buf0 d_lut_BUFX2
ABUFX2_insert392 [areg_25_] areg_25_bF$buf1 d_lut_BUFX2
ABUFX2_insert391 [areg_25_] areg_25_bF$buf2 d_lut_BUFX2
ABUFX2_insert390 [areg_25_] areg_25_bF$buf3 d_lut_BUFX2
ABUFX2_insert389 [areg_25_] areg_25_bF$buf4 d_lut_BUFX2
ABUFX2_insert388 [areg_8_] areg_8_bF$buf0 d_lut_BUFX2
ABUFX2_insert387 [areg_8_] areg_8_bF$buf1 d_lut_BUFX2
ABUFX2_insert386 [areg_8_] areg_8_bF$buf2 d_lut_BUFX2
ABUFX2_insert385 [areg_8_] areg_8_bF$buf3 d_lut_BUFX2
ABUFX2_insert384 [areg_8_] areg_8_bF$buf4 d_lut_BUFX2
ABUFX2_insert383 [_2519_] _2519__bF$buf0 d_lut_BUFX2
ABUFX2_insert382 [_2519_] _2519__bF$buf1 d_lut_BUFX2
ABUFX2_insert381 [_2519_] _2519__bF$buf2 d_lut_BUFX2
ABUFX2_insert380 [_2519_] _2519__bF$buf3 d_lut_BUFX2
ABUFX2_insert379 [_2560_] _2560__bF$buf0 d_lut_BUFX2
ABUFX2_insert378 [_2560_] _2560__bF$buf1 d_lut_BUFX2
ABUFX2_insert377 [_2560_] _2560__bF$buf2 d_lut_BUFX2
ABUFX2_insert376 [_2560_] _2560__bF$buf3 d_lut_BUFX2
ABUFX2_insert375 [_2560_] _2560__bF$buf4 d_lut_BUFX2
ABUFX2_insert374 [areg_28_] areg_28_bF$buf0 d_lut_BUFX2
ABUFX2_insert373 [areg_28_] areg_28_bF$buf1 d_lut_BUFX2
ABUFX2_insert372 [areg_28_] areg_28_bF$buf2 d_lut_BUFX2
ABUFX2_insert371 [areg_28_] areg_28_bF$buf3 d_lut_BUFX2
ABUFX2_insert370 [areg_28_] areg_28_bF$buf4 d_lut_BUFX2
ABUFX2_insert369 [areg_28_] areg_28_bF$buf5 d_lut_BUFX2
ABUFX2_insert368 [areg_31_] areg_31_bF$buf0 d_lut_BUFX2
ABUFX2_insert367 [areg_31_] areg_31_bF$buf1 d_lut_BUFX2
ABUFX2_insert366 [areg_31_] areg_31_bF$buf2 d_lut_BUFX2
ABUFX2_insert365 [areg_31_] areg_31_bF$buf3 d_lut_BUFX2
ABUFX2_insert364 [areg_31_] areg_31_bF$buf4 d_lut_BUFX2
ABUFX2_insert363 [breg_0_] breg_0_bF$buf0 d_lut_BUFX2
ABUFX2_insert362 [breg_0_] breg_0_bF$buf1 d_lut_BUFX2
ABUFX2_insert361 [breg_0_] breg_0_bF$buf2 d_lut_BUFX2
ABUFX2_insert360 [breg_0_] breg_0_bF$buf3 d_lut_BUFX2
ABUFX2_insert359 [breg_0_] breg_0_bF$buf4 d_lut_BUFX2
ABUFX2_insert358 [breg_0_] breg_0_bF$buf5 d_lut_BUFX2
ABUFX2_insert357 [breg_0_] breg_0_bF$buf6 d_lut_BUFX2
ABUFX2_insert356 [breg_12_] breg_12_bF$buf0 d_lut_BUFX2
ABUFX2_insert355 [breg_12_] breg_12_bF$buf1 d_lut_BUFX2
ABUFX2_insert354 [breg_12_] breg_12_bF$buf2 d_lut_BUFX2
ABUFX2_insert353 [breg_12_] breg_12_bF$buf3 d_lut_BUFX2
ABUFX2_insert352 [breg_12_] breg_12_bF$buf4 d_lut_BUFX2
ABUFX2_insert351 [_9104_] _9104__bF$buf0 d_lut_BUFX2
ABUFX2_insert350 [_9104_] _9104__bF$buf1 d_lut_BUFX2
ABUFX2_insert349 [_9104_] _9104__bF$buf2 d_lut_BUFX2
ABUFX2_insert348 [_9104_] _9104__bF$buf3 d_lut_BUFX2
ABUFX2_insert347 [breg_3_] breg_3_bF$buf0 d_lut_BUFX2
ABUFX2_insert346 [breg_3_] breg_3_bF$buf1 d_lut_BUFX2
ABUFX2_insert345 [breg_3_] breg_3_bF$buf2 d_lut_BUFX2
ABUFX2_insert344 [breg_3_] breg_3_bF$buf3 d_lut_BUFX2
ABUFX2_insert343 [breg_3_] breg_3_bF$buf4 d_lut_BUFX2
ABUFX2_insert342 [breg_3_] breg_3_bF$buf5 d_lut_BUFX2
ABUFX2_insert341 [breg_15_] breg_15_bF$buf0 d_lut_BUFX2
ABUFX2_insert340 [breg_15_] breg_15_bF$buf1 d_lut_BUFX2
ABUFX2_insert339 [breg_15_] breg_15_bF$buf2 d_lut_BUFX2
ABUFX2_insert338 [breg_15_] breg_15_bF$buf3 d_lut_BUFX2
ABUFX2_insert337 [breg_15_] breg_15_bF$buf4 d_lut_BUFX2
ABUFX2_insert336 [breg_15_] breg_15_bF$buf5 d_lut_BUFX2
ABUFX2_insert335 [_2287_] _2287__bF$buf0 d_lut_BUFX2
ABUFX2_insert334 [_2287_] _2287__bF$buf1 d_lut_BUFX2
ABUFX2_insert333 [_2287_] _2287__bF$buf2 d_lut_BUFX2
ABUFX2_insert332 [_2287_] _2287__bF$buf3 d_lut_BUFX2
ABUFX2_insert331 [breg_6_] breg_6_bF$buf0 d_lut_BUFX2
ABUFX2_insert330 [breg_6_] breg_6_bF$buf1 d_lut_BUFX2
ABUFX2_insert329 [breg_6_] breg_6_bF$buf2 d_lut_BUFX2
ABUFX2_insert328 [breg_6_] breg_6_bF$buf3 d_lut_BUFX2
ABUFX2_insert327 [breg_6_] breg_6_bF$buf4 d_lut_BUFX2
ABUFX2_insert326 [breg_6_] breg_6_bF$buf5 d_lut_BUFX2
ABUFX2_insert325 [_2669_] _2669__bF$buf0 d_lut_BUFX2
ABUFX2_insert324 [_2669_] _2669__bF$buf1 d_lut_BUFX2
ABUFX2_insert323 [_2669_] _2669__bF$buf2 d_lut_BUFX2
ABUFX2_insert322 [_2669_] _2669__bF$buf3 d_lut_BUFX2
ABUFX2_insert321 [_5315_] _5315__bF$buf0 d_lut_BUFX2
ABUFX2_insert320 [_5315_] _5315__bF$buf1 d_lut_BUFX2
ABUFX2_insert319 [_5315_] _5315__bF$buf2 d_lut_BUFX2
ABUFX2_insert318 [_5315_] _5315__bF$buf3 d_lut_BUFX2
ABUFX2_insert317 [_5315_] _5315__bF$buf4 d_lut_BUFX2
ABUFX2_insert316 [_6044_] _6044__bF$buf0 d_lut_BUFX2
ABUFX2_insert315 [_6044_] _6044__bF$buf1 d_lut_BUFX2
ABUFX2_insert314 [_6044_] _6044__bF$buf2 d_lut_BUFX2
ABUFX2_insert313 [_6044_] _6044__bF$buf3 d_lut_BUFX2
ABUFX2_insert312 [_6044_] _6044__bF$buf4 d_lut_BUFX2
ABUFX2_insert311 [_6044_] _6044__bF$buf5 d_lut_BUFX2
ABUFX2_insert310 [breg_18_] breg_18_bF$buf0 d_lut_BUFX2
ABUFX2_insert309 [breg_18_] breg_18_bF$buf1 d_lut_BUFX2
ABUFX2_insert308 [breg_18_] breg_18_bF$buf2 d_lut_BUFX2
ABUFX2_insert307 [breg_18_] breg_18_bF$buf3 d_lut_BUFX2
ABUFX2_insert306 [breg_18_] breg_18_bF$buf4 d_lut_BUFX2
ABUFX2_insert305 [breg_18_] breg_18_bF$buf5 d_lut_BUFX2
ABUFX2_insert304 [_2825_] _2825__bF$buf0 d_lut_BUFX2
ABUFX2_insert303 [_2825_] _2825__bF$buf1 d_lut_BUFX2
ABUFX2_insert302 [_2825_] _2825__bF$buf2 d_lut_BUFX2
ABUFX2_insert301 [_2825_] _2825__bF$buf3 d_lut_BUFX2
ABUFX2_insert300 [_2825_] _2825__bF$buf4 d_lut_BUFX2
ABUFX2_insert299 [breg_21_] breg_21_bF$buf0 d_lut_BUFX2
ABUFX2_insert298 [breg_21_] breg_21_bF$buf1 d_lut_BUFX2
ABUFX2_insert297 [breg_21_] breg_21_bF$buf2 d_lut_BUFX2
ABUFX2_insert296 [breg_21_] breg_21_bF$buf3 d_lut_BUFX2
ABUFX2_insert295 [breg_21_] breg_21_bF$buf4 d_lut_BUFX2
ABUFX2_insert294 [breg_9_] breg_9_bF$buf0 d_lut_BUFX2
ABUFX2_insert293 [breg_9_] breg_9_bF$buf1 d_lut_BUFX2
ABUFX2_insert292 [breg_9_] breg_9_bF$buf2 d_lut_BUFX2
ABUFX2_insert291 [breg_9_] breg_9_bF$buf3 d_lut_BUFX2
ABUFX2_insert290 [breg_9_] breg_9_bF$buf4 d_lut_BUFX2
ABUFX2_insert289 [breg_9_] breg_9_bF$buf5 d_lut_BUFX2
ABUFX2_insert288 [_5453_] _5453__bF$buf0 d_lut_BUFX2
ABUFX2_insert287 [_5453_] _5453__bF$buf1 d_lut_BUFX2
ABUFX2_insert286 [_5453_] _5453__bF$buf2 d_lut_BUFX2
ABUFX2_insert285 [_5453_] _5453__bF$buf3 d_lut_BUFX2
ABUFX2_insert284 [_5453_] _5453__bF$buf4 d_lut_BUFX2
ABUFX2_insert283 [_5453_] _5453__bF$buf5 d_lut_BUFX2
ABUFX2_insert282 [areg_11_] areg_11_bF$buf0 d_lut_BUFX2
ABUFX2_insert281 [areg_11_] areg_11_bF$buf1 d_lut_BUFX2
ABUFX2_insert280 [areg_11_] areg_11_bF$buf2 d_lut_BUFX2
ABUFX2_insert279 [areg_11_] areg_11_bF$buf3 d_lut_BUFX2
ABUFX2_insert278 [areg_11_] areg_11_bF$buf4 d_lut_BUFX2
ABUFX2_insert277 [_6050_] _6050__bF$buf0 d_lut_BUFX2
ABUFX2_insert276 [_6050_] _6050__bF$buf1 d_lut_BUFX2
ABUFX2_insert275 [_6050_] _6050__bF$buf2 d_lut_BUFX2
ABUFX2_insert274 [_6050_] _6050__bF$buf3 d_lut_BUFX2
ABUFX2_insert273 [_7217_] _7217__bF$buf0 d_lut_BUFX2
ABUFX2_insert272 [_7217_] _7217__bF$buf1 d_lut_BUFX2
ABUFX2_insert271 [_7217_] _7217__bF$buf2 d_lut_BUFX2
ABUFX2_insert270 [_7217_] _7217__bF$buf3 d_lut_BUFX2
ABUFX2_insert269 [_7217_] _7217__bF$buf4 d_lut_BUFX2
ABUFX2_insert268 [breg_24_] breg_24_bF$buf0 d_lut_BUFX2
ABUFX2_insert267 [breg_24_] breg_24_bF$buf1 d_lut_BUFX2
ABUFX2_insert266 [breg_24_] breg_24_bF$buf2 d_lut_BUFX2
ABUFX2_insert265 [breg_24_] breg_24_bF$buf3 d_lut_BUFX2
ABUFX2_insert264 [breg_24_] breg_24_bF$buf4 d_lut_BUFX2
ABUFX2_insert263 [breg_24_] breg_24_bF$buf5 d_lut_BUFX2
ABUFX2_insert262 [_6300_] _6300__bF$buf0 d_lut_BUFX2
ABUFX2_insert261 [_6300_] _6300__bF$buf1 d_lut_BUFX2
ABUFX2_insert260 [_6300_] _6300__bF$buf2 d_lut_BUFX2
ABUFX2_insert259 [_6300_] _6300__bF$buf3 d_lut_BUFX2
ABUFX2_insert258 [_4116_] _4116__bF$buf0 d_lut_BUFX2
ABUFX2_insert257 [_4116_] _4116__bF$buf1 d_lut_BUFX2
ABUFX2_insert256 [_4116_] _4116__bF$buf2 d_lut_BUFX2
ABUFX2_insert255 [_4116_] _4116__bF$buf3 d_lut_BUFX2
ABUFX2_insert254 [_4116_] _4116__bF$buf4 d_lut_BUFX2
ABUFX2_insert253 [areg_14_] areg_14_bF$buf0 d_lut_BUFX2
ABUFX2_insert252 [areg_14_] areg_14_bF$buf1 d_lut_BUFX2
ABUFX2_insert251 [areg_14_] areg_14_bF$buf2 d_lut_BUFX2
ABUFX2_insert250 [areg_14_] areg_14_bF$buf3 d_lut_BUFX2
ABUFX2_insert249 [areg_14_] areg_14_bF$buf4 d_lut_BUFX2
ABUFX2_insert248 [breg_27_] breg_27_bF$buf0 d_lut_BUFX2
ABUFX2_insert247 [breg_27_] breg_27_bF$buf1 d_lut_BUFX2
ABUFX2_insert246 [breg_27_] breg_27_bF$buf2 d_lut_BUFX2
ABUFX2_insert245 [breg_27_] breg_27_bF$buf3 d_lut_BUFX2
ABUFX2_insert244 [breg_27_] breg_27_bF$buf4 d_lut_BUFX2
ABUFX2_insert243 [breg_27_] breg_27_bF$buf5 d_lut_BUFX2
ABUFX2_insert242 [areg_17_] areg_17_bF$buf0 d_lut_BUFX2
ABUFX2_insert241 [areg_17_] areg_17_bF$buf1 d_lut_BUFX2
ABUFX2_insert240 [areg_17_] areg_17_bF$buf2 d_lut_BUFX2
ABUFX2_insert239 [areg_17_] areg_17_bF$buf3 d_lut_BUFX2
ABUFX2_insert238 [areg_17_] areg_17_bF$buf4 d_lut_BUFX2
ABUFX2_insert237 [areg_17_] areg_17_bF$buf5 d_lut_BUFX2
ABUFX2_insert236 [areg_20_] areg_20_bF$buf0 d_lut_BUFX2
ABUFX2_insert235 [areg_20_] areg_20_bF$buf1 d_lut_BUFX2
ABUFX2_insert234 [areg_20_] areg_20_bF$buf2 d_lut_BUFX2
ABUFX2_insert233 [areg_20_] areg_20_bF$buf3 d_lut_BUFX2
ABUFX2_insert232 [areg_20_] areg_20_bF$buf4 d_lut_BUFX2
ABUFX2_insert231 [areg_3_] areg_3_bF$buf0 d_lut_BUFX2
ABUFX2_insert230 [areg_3_] areg_3_bF$buf1 d_lut_BUFX2
ABUFX2_insert229 [areg_3_] areg_3_bF$buf2 d_lut_BUFX2
ABUFX2_insert228 [areg_3_] areg_3_bF$buf3 d_lut_BUFX2
ABUFX2_insert227 [areg_3_] areg_3_bF$buf4 d_lut_BUFX2
ABUFX2_insert226 [_3146_] _3146__bF$buf0 d_lut_BUFX2
ABUFX2_insert225 [_3146_] _3146__bF$buf1 d_lut_BUFX2
ABUFX2_insert224 [_3146_] _3146__bF$buf2 d_lut_BUFX2
ABUFX2_insert223 [_3146_] _3146__bF$buf3 d_lut_BUFX2
ABUFX2_insert222 [areg_23_] areg_23_bF$buf0 d_lut_BUFX2
ABUFX2_insert221 [areg_23_] areg_23_bF$buf1 d_lut_BUFX2
ABUFX2_insert220 [areg_23_] areg_23_bF$buf2 d_lut_BUFX2
ABUFX2_insert219 [areg_23_] areg_23_bF$buf3 d_lut_BUFX2
ABUFX2_insert218 [areg_23_] areg_23_bF$buf4 d_lut_BUFX2
ABUFX2_insert217 [areg_6_] areg_6_bF$buf0 d_lut_BUFX2
ABUFX2_insert216 [areg_6_] areg_6_bF$buf1 d_lut_BUFX2
ABUFX2_insert215 [areg_6_] areg_6_bF$buf2 d_lut_BUFX2
ABUFX2_insert214 [areg_6_] areg_6_bF$buf3 d_lut_BUFX2
ABUFX2_insert213 [areg_6_] areg_6_bF$buf4 d_lut_BUFX2
ABUFX2_insert212 [areg_26_] areg_26_bF$buf0 d_lut_BUFX2
ABUFX2_insert211 [areg_26_] areg_26_bF$buf1 d_lut_BUFX2
ABUFX2_insert210 [areg_26_] areg_26_bF$buf2 d_lut_BUFX2
ABUFX2_insert209 [areg_26_] areg_26_bF$buf3 d_lut_BUFX2
ABUFX2_insert208 [areg_26_] areg_26_bF$buf4 d_lut_BUFX2
ABUFX2_insert207 [_7100_] _7100__bF$buf0 d_lut_BUFX2
ABUFX2_insert206 [_7100_] _7100__bF$buf1 d_lut_BUFX2
ABUFX2_insert205 [_7100_] _7100__bF$buf2 d_lut_BUFX2
ABUFX2_insert204 [_7100_] _7100__bF$buf3 d_lut_BUFX2
ABUFX2_insert203 [_7520_] _7520__bF$buf0 d_lut_BUFX2
ABUFX2_insert202 [_7520_] _7520__bF$buf1 d_lut_BUFX2
ABUFX2_insert201 [_7520_] _7520__bF$buf2 d_lut_BUFX2
ABUFX2_insert200 [_7520_] _7520__bF$buf3 d_lut_BUFX2
ABUFX2_insert199 [_7711_] _7711__bF$buf0 d_lut_BUFX2
ABUFX2_insert198 [_7711_] _7711__bF$buf1 d_lut_BUFX2
ABUFX2_insert197 [_7711_] _7711__bF$buf2 d_lut_BUFX2
ABUFX2_insert196 [_7711_] _7711__bF$buf3 d_lut_BUFX2
ABUFX2_insert195 [_3402_] _3402__bF$buf0 d_lut_BUFX2
ABUFX2_insert194 [_3402_] _3402__bF$buf1 d_lut_BUFX2
ABUFX2_insert193 [_3402_] _3402__bF$buf2 d_lut_BUFX2
ABUFX2_insert192 [_3402_] _3402__bF$buf3 d_lut_BUFX2
ABUFX2_insert191 [_4551_] _4551__bF$buf0 d_lut_BUFX2
ABUFX2_insert190 [_4551_] _4551__bF$buf1 d_lut_BUFX2
ABUFX2_insert189 [_4551_] _4551__bF$buf2 d_lut_BUFX2
ABUFX2_insert188 [_4551_] _4551__bF$buf3 d_lut_BUFX2
ABUFX2_insert187 [_4551_] _4551__bF$buf4 d_lut_BUFX2
ABUFX2_insert186 [areg_9_] areg_9_bF$buf0 d_lut_BUFX2
ABUFX2_insert185 [areg_9_] areg_9_bF$buf1 d_lut_BUFX2
ABUFX2_insert184 [areg_9_] areg_9_bF$buf2 d_lut_BUFX2
ABUFX2_insert183 [areg_9_] areg_9_bF$buf3 d_lut_BUFX2
ABUFX2_insert182 [areg_9_] areg_9_bF$buf4 d_lut_BUFX2
ABUFX2_insert181 [_549_] _549__bF$buf0 d_lut_BUFX2
ABUFX2_insert180 [_549_] _549__bF$buf1 d_lut_BUFX2
ABUFX2_insert179 [_549_] _549__bF$buf2 d_lut_BUFX2
ABUFX2_insert178 [_549_] _549__bF$buf3 d_lut_BUFX2
ABUFX2_insert177 [_549_] _549__bF$buf4 d_lut_BUFX2
ABUFX2_insert176 [_6582_] _6582__bF$buf0 d_lut_BUFX2
ABUFX2_insert175 [_6582_] _6582__bF$buf1 d_lut_BUFX2
ABUFX2_insert174 [_6582_] _6582__bF$buf2 d_lut_BUFX2
ABUFX2_insert173 [_6582_] _6582__bF$buf3 d_lut_BUFX2
ABUFX2_insert172 [_2884_] _2884__bF$buf0 d_lut_BUFX2
ABUFX2_insert171 [_2884_] _2884__bF$buf1 d_lut_BUFX2
ABUFX2_insert170 [_2884_] _2884__bF$buf2 d_lut_BUFX2
ABUFX2_insert169 [_2884_] _2884__bF$buf3 d_lut_BUFX2
ABUFX2_insert168 [areg_29_] areg_29_bF$buf0 d_lut_BUFX2
ABUFX2_insert167 [areg_29_] areg_29_bF$buf1 d_lut_BUFX2
ABUFX2_insert166 [areg_29_] areg_29_bF$buf2 d_lut_BUFX2
ABUFX2_insert165 [areg_29_] areg_29_bF$buf3 d_lut_BUFX2
ABUFX2_insert164 [areg_29_] areg_29_bF$buf4 d_lut_BUFX2
ABUFX2_insert163 [areg_29_] areg_29_bF$buf5 d_lut_BUFX2
ABUFX2_insert162 [_5668_] _5668__bF$buf0 d_lut_BUFX2
ABUFX2_insert161 [_5668_] _5668__bF$buf1 d_lut_BUFX2
ABUFX2_insert160 [_5668_] _5668__bF$buf2 d_lut_BUFX2
ABUFX2_insert159 [_5668_] _5668__bF$buf3 d_lut_BUFX2
ABUFX2_insert158 [_5668_] _5668__bF$buf4 d_lut_BUFX2
ABUFX2_insert157 [_5668_] _5668__bF$buf5 d_lut_BUFX2
ABUFX2_insert156 [breg_10_] breg_10_bF$buf0 d_lut_BUFX2
ABUFX2_insert155 [breg_10_] breg_10_bF$buf1 d_lut_BUFX2
ABUFX2_insert154 [breg_10_] breg_10_bF$buf2 d_lut_BUFX2
ABUFX2_insert153 [breg_10_] breg_10_bF$buf3 d_lut_BUFX2
ABUFX2_insert152 [breg_10_] breg_10_bF$buf4 d_lut_BUFX2
ABUFX2_insert151 [breg_10_] breg_10_bF$buf5 d_lut_BUFX2
ABUFX2_insert150 [_2376_] _2376__bF$buf0 d_lut_BUFX2
ABUFX2_insert149 [_2376_] _2376__bF$buf1 d_lut_BUFX2
ABUFX2_insert148 [_2376_] _2376__bF$buf2 d_lut_BUFX2
ABUFX2_insert147 [_2376_] _2376__bF$buf3 d_lut_BUFX2
ABUFX2_insert146 [breg_1_] breg_1_bF$buf0 d_lut_BUFX2
ABUFX2_insert145 [breg_1_] breg_1_bF$buf1 d_lut_BUFX2
ABUFX2_insert144 [breg_1_] breg_1_bF$buf2 d_lut_BUFX2
ABUFX2_insert143 [breg_1_] breg_1_bF$buf3 d_lut_BUFX2
ABUFX2_insert142 [breg_1_] breg_1_bF$buf4 d_lut_BUFX2
ABUFX2_insert141 [breg_1_] breg_1_bF$buf5 d_lut_BUFX2
ABUFX2_insert140 [breg_1_] breg_1_bF$buf6 d_lut_BUFX2
ABUFX2_insert139 [_5921_] _5921__bF$buf0 d_lut_BUFX2
ABUFX2_insert138 [_5921_] _5921__bF$buf1 d_lut_BUFX2
ABUFX2_insert137 [_5921_] _5921__bF$buf2 d_lut_BUFX2
ABUFX2_insert136 [_5921_] _5921__bF$buf3 d_lut_BUFX2
ABUFX2_insert135 [breg_13_] breg_13_bF$buf0 d_lut_BUFX2
ABUFX2_insert134 [breg_13_] breg_13_bF$buf1 d_lut_BUFX2
ABUFX2_insert133 [breg_13_] breg_13_bF$buf2 d_lut_BUFX2
ABUFX2_insert132 [breg_13_] breg_13_bF$buf3 d_lut_BUFX2
ABUFX2_insert131 [breg_13_] breg_13_bF$buf4 d_lut_BUFX2
ABUFX2_insert130 [breg_4_] breg_4_bF$buf0 d_lut_BUFX2
ABUFX2_insert129 [breg_4_] breg_4_bF$buf1 d_lut_BUFX2
ABUFX2_insert128 [breg_4_] breg_4_bF$buf2 d_lut_BUFX2
ABUFX2_insert127 [breg_4_] breg_4_bF$buf3 d_lut_BUFX2
ABUFX2_insert126 [breg_4_] breg_4_bF$buf4 d_lut_BUFX2
ABUFX2_insert125 [breg_4_] breg_4_bF$buf5 d_lut_BUFX2
ABUFX2_insert124 [_3646_] _3646__bF$buf0 d_lut_BUFX2
ABUFX2_insert123 [_3646_] _3646__bF$buf1 d_lut_BUFX2
ABUFX2_insert122 [_3646_] _3646__bF$buf2 d_lut_BUFX2
ABUFX2_insert121 [_3646_] _3646__bF$buf3 d_lut_BUFX2
ABUFX2_insert120 [breg_16_] breg_16_bF$buf0 d_lut_BUFX2
ABUFX2_insert119 [breg_16_] breg_16_bF$buf1 d_lut_BUFX2
ABUFX2_insert118 [breg_16_] breg_16_bF$buf2 d_lut_BUFX2
ABUFX2_insert117 [breg_16_] breg_16_bF$buf3 d_lut_BUFX2
ABUFX2_insert116 [breg_16_] breg_16_bF$buf4 d_lut_BUFX2
ABUFX2_insert115 [breg_16_] breg_16_bF$buf5 d_lut_BUFX2
ABUFX2_insert114 [_3781_] _3781__bF$buf0 d_lut_BUFX2
ABUFX2_insert113 [_3781_] _3781__bF$buf1 d_lut_BUFX2
ABUFX2_insert112 [_3781_] _3781__bF$buf2 d_lut_BUFX2
ABUFX2_insert111 [_3781_] _3781__bF$buf3 d_lut_BUFX2
ABUFX2_insert110 [_4434_] _4434__bF$buf0 d_lut_BUFX2
ABUFX2_insert109 [_4434_] _4434__bF$buf1 d_lut_BUFX2
ABUFX2_insert108 [_4434_] _4434__bF$buf2 d_lut_BUFX2
ABUFX2_insert107 [_4434_] _4434__bF$buf3 d_lut_BUFX2
ABUFX2_insert106 [breg_7_] breg_7_bF$buf0 d_lut_BUFX2
ABUFX2_insert105 [breg_7_] breg_7_bF$buf1 d_lut_BUFX2
ABUFX2_insert104 [breg_7_] breg_7_bF$buf2 d_lut_BUFX2
ABUFX2_insert103 [breg_7_] breg_7_bF$buf3 d_lut_BUFX2
ABUFX2_insert102 [breg_7_] breg_7_bF$buf4 d_lut_BUFX2
ABUFX2_insert101 [breg_7_] breg_7_bF$buf5 d_lut_BUFX2
ABUFX2_insert100 [breg_19_] breg_19_bF$buf0 d_lut_BUFX2
ABUFX2_insert99 [breg_19_] breg_19_bF$buf1 d_lut_BUFX2
ABUFX2_insert98 [breg_19_] breg_19_bF$buf2 d_lut_BUFX2
ABUFX2_insert97 [breg_19_] breg_19_bF$buf3 d_lut_BUFX2
ABUFX2_insert96 [breg_19_] breg_19_bF$buf4 d_lut_BUFX2
ABUFX2_insert95 [breg_19_] breg_19_bF$buf5 d_lut_BUFX2
ACLKBUF1_insert94 [clk] clk_bF$buf0 d_lut_CLKBUF1
ACLKBUF1_insert93 [clk] clk_bF$buf1 d_lut_CLKBUF1
ACLKBUF1_insert92 [clk] clk_bF$buf2 d_lut_CLKBUF1
ACLKBUF1_insert91 [clk] clk_bF$buf3 d_lut_CLKBUF1
ACLKBUF1_insert90 [clk] clk_bF$buf4 d_lut_CLKBUF1
ACLKBUF1_insert89 [clk] clk_bF$buf5 d_lut_CLKBUF1
ACLKBUF1_insert88 [clk] clk_bF$buf6 d_lut_CLKBUF1
ACLKBUF1_insert87 [clk] clk_bF$buf7 d_lut_CLKBUF1
ACLKBUF1_insert86 [clk] clk_bF$buf8 d_lut_CLKBUF1
ACLKBUF1_insert85 [clk] clk_bF$buf9 d_lut_CLKBUF1
ACLKBUF1_insert84 [clk] clk_bF$buf10 d_lut_CLKBUF1
ABUFX2_insert83 [breg_22_] breg_22_bF$buf0 d_lut_BUFX2
ABUFX2_insert82 [breg_22_] breg_22_bF$buf1 d_lut_BUFX2
ABUFX2_insert81 [breg_22_] breg_22_bF$buf2 d_lut_BUFX2
ABUFX2_insert80 [breg_22_] breg_22_bF$buf3 d_lut_BUFX2
ABUFX2_insert79 [breg_22_] breg_22_bF$buf4 d_lut_BUFX2
ABUFX2_insert78 [areg_12_] areg_12_bF$buf0 d_lut_BUFX2
ABUFX2_insert77 [areg_12_] areg_12_bF$buf1 d_lut_BUFX2
ABUFX2_insert76 [areg_12_] areg_12_bF$buf2 d_lut_BUFX2
ABUFX2_insert75 [areg_12_] areg_12_bF$buf3 d_lut_BUFX2
ABUFX2_insert74 [areg_12_] areg_12_bF$buf4 d_lut_BUFX2
ABUFX2_insert73 [_6815_] _6815__bF$buf0 d_lut_BUFX2
ABUFX2_insert72 [_6815_] _6815__bF$buf1 d_lut_BUFX2
ABUFX2_insert71 [_6815_] _6815__bF$buf2 d_lut_BUFX2
ABUFX2_insert70 [_6815_] _6815__bF$buf3 d_lut_BUFX2
ABUFX2_insert69 [_6815_] _6815__bF$buf4 d_lut_BUFX2
ABUFX2_insert68 [breg_25_] breg_25_bF$buf0 d_lut_BUFX2
ABUFX2_insert67 [breg_25_] breg_25_bF$buf1 d_lut_BUFX2
ABUFX2_insert66 [breg_25_] breg_25_bF$buf2 d_lut_BUFX2
ABUFX2_insert65 [breg_25_] breg_25_bF$buf3 d_lut_BUFX2
ABUFX2_insert64 [breg_25_] breg_25_bF$buf4 d_lut_BUFX2
ABUFX2_insert63 [breg_25_] breg_25_bF$buf5 d_lut_BUFX2
ABUFX2_insert62 [areg_15_] areg_15_bF$buf0 d_lut_BUFX2
ABUFX2_insert61 [areg_15_] areg_15_bF$buf1 d_lut_BUFX2
ABUFX2_insert60 [areg_15_] areg_15_bF$buf2 d_lut_BUFX2
ABUFX2_insert59 [areg_15_] areg_15_bF$buf3 d_lut_BUFX2
ABUFX2_insert58 [areg_15_] areg_15_bF$buf4 d_lut_BUFX2
ABUFX2_insert57 [breg_28_] breg_28_bF$buf0 d_lut_BUFX2
ABUFX2_insert56 [breg_28_] breg_28_bF$buf1 d_lut_BUFX2
ABUFX2_insert55 [breg_28_] breg_28_bF$buf2 d_lut_BUFX2
ABUFX2_insert54 [breg_28_] breg_28_bF$buf3 d_lut_BUFX2
ABUFX2_insert53 [breg_28_] breg_28_bF$buf4 d_lut_BUFX2
ABUFX2_insert52 [breg_28_] breg_28_bF$buf5 d_lut_BUFX2
ABUFX2_insert51 [areg_1_] areg_1_bF$buf0 d_lut_BUFX2
ABUFX2_insert50 [areg_1_] areg_1_bF$buf1 d_lut_BUFX2
ABUFX2_insert49 [areg_1_] areg_1_bF$buf2 d_lut_BUFX2
ABUFX2_insert48 [areg_1_] areg_1_bF$buf3 d_lut_BUFX2
ABUFX2_insert47 [areg_1_] areg_1_bF$buf4 d_lut_BUFX2
ABUFX2_insert46 [areg_18_] areg_18_bF$buf0 d_lut_BUFX2
ABUFX2_insert45 [areg_18_] areg_18_bF$buf1 d_lut_BUFX2
ABUFX2_insert44 [areg_18_] areg_18_bF$buf2 d_lut_BUFX2
ABUFX2_insert43 [areg_18_] areg_18_bF$buf3 d_lut_BUFX2
ABUFX2_insert42 [areg_18_] areg_18_bF$buf4 d_lut_BUFX2
ABUFX2_insert41 [areg_18_] areg_18_bF$buf5 d_lut_BUFX2
ABUFX2_insert40 [areg_21_] areg_21_bF$buf0 d_lut_BUFX2
ABUFX2_insert39 [areg_21_] areg_21_bF$buf1 d_lut_BUFX2
ABUFX2_insert38 [areg_21_] areg_21_bF$buf2 d_lut_BUFX2
ABUFX2_insert37 [areg_21_] areg_21_bF$buf3 d_lut_BUFX2
ABUFX2_insert36 [areg_21_] areg_21_bF$buf4 d_lut_BUFX2
ABUFX2_insert35 [areg_4_] areg_4_bF$buf0 d_lut_BUFX2
ABUFX2_insert34 [areg_4_] areg_4_bF$buf1 d_lut_BUFX2
ABUFX2_insert33 [areg_4_] areg_4_bF$buf2 d_lut_BUFX2
ABUFX2_insert32 [areg_4_] areg_4_bF$buf3 d_lut_BUFX2
ABUFX2_insert31 [areg_4_] areg_4_bF$buf4 d_lut_BUFX2
ABUFX2_insert30 [_2362_] _2362__bF$buf0 d_lut_BUFX2
ABUFX2_insert29 [_2362_] _2362__bF$buf1 d_lut_BUFX2
ABUFX2_insert28 [_2362_] _2362__bF$buf2 d_lut_BUFX2
ABUFX2_insert27 [_2362_] _2362__bF$buf3 d_lut_BUFX2
ABUFX2_insert26 [_2362_] _2362__bF$buf4 d_lut_BUFX2
ABUFX2_insert25 [_2362_] _2362__bF$buf5 d_lut_BUFX2
ABUFX2_insert24 [_3529_] _3529__bF$buf0 d_lut_BUFX2
ABUFX2_insert23 [_3529_] _3529__bF$buf1 d_lut_BUFX2
ABUFX2_insert22 [_3529_] _3529__bF$buf2 d_lut_BUFX2
ABUFX2_insert21 [_3529_] _3529__bF$buf3 d_lut_BUFX2
ABUFX2_insert20 [_3529_] _3529__bF$buf4 d_lut_BUFX2
ABUFX2_insert19 [_4258_] _4258__bF$buf0 d_lut_BUFX2
ABUFX2_insert18 [_4258_] _4258__bF$buf1 d_lut_BUFX2
ABUFX2_insert17 [_4258_] _4258__bF$buf2 d_lut_BUFX2
ABUFX2_insert16 [_4258_] _4258__bF$buf3 d_lut_BUFX2
ABUFX2_insert15 [areg_24_] areg_24_bF$buf0 d_lut_BUFX2
ABUFX2_insert14 [areg_24_] areg_24_bF$buf1 d_lut_BUFX2
ABUFX2_insert13 [areg_24_] areg_24_bF$buf2 d_lut_BUFX2
ABUFX2_insert12 [areg_24_] areg_24_bF$buf3 d_lut_BUFX2
ABUFX2_insert11 [areg_24_] areg_24_bF$buf4 d_lut_BUFX2
ABUFX2_insert10 [areg_7_] areg_7_bF$buf0 d_lut_BUFX2
ABUFX2_insert9 [areg_7_] areg_7_bF$buf1 d_lut_BUFX2