*SPICE netlist created from verilog structural netlist module multiplierBeh by vlog2Spice (qflow)
*This file may contain array delimiters, not for use in simulation.

** Start of included library /usr/local/share/qflow/tech/osu018/osu018_stdcells.sp

.subckt AND2X1 Y B vdd gnd A
M0 a_2_6# A vdd vdd pfet w=2u l=0.2u
+ ad=0p pd=0u as=0p ps=0u 
M1 vdd B a_2_6# vdd pfet w=2u l=0.2u
+ ad=0p pd=0u as=0p ps=0u 
M2 Y a_2_6# vdd vdd pfet w=2u l=0.2u
+ ad=0p pd=0u as=0p ps=0u 
M3 a_9_6# A a_2_6# Gnd nfet w=2u l=0.2u
+ ad=0p pd=0u as=0p ps=0u 
M4 gnd B a_9_6# Gnd nfet w=2u l=0.2u
+ ad=0p pd=0u as=0p ps=0u 
M5 Y a_2_6# gnd Gnd nfet w=1u l=0.2u
+ ad=0p pd=0u as=0p ps=0u 
.ends AND2X1

.subckt AND2X2 vdd gnd A B Y
M0 a_2_6# A vdd vdd pfet w=2u l=0.2u
+ ad=0p pd=0u as=0p ps=0u 
M1 vdd B a_2_6# vdd pfet w=2u l=0.2u
+ ad=0p pd=0u as=0p ps=0u 
M2 Y a_2_6# vdd vdd pfet w=4u l=0.2u
+ ad=0p pd=0u as=0p ps=0u 
M3 a_9_6# A a_2_6# Gnd nfet w=2u l=0.2u
+ ad=0p pd=0u as=0p ps=0u 
M4 gnd B a_9_6# Gnd nfet w=2u l=0.2u
+ ad=0p pd=0u as=0p ps=0u 
M5 Y a_2_6# gnd Gnd nfet w=2u l=0.2u
+ ad=0p pd=0u as=0p ps=0u 
.ends AND2X2

.subckt AOI21X1 gnd vdd A B Y C
M0 vdd A a_2_54# vdd pfet w=4u l=0.2u
+ ad=0p pd=0u as=0p ps=0u 
M1 a_2_54# B vdd vdd pfet w=4u l=0.2u
+ ad=0p pd=0u as=0p ps=0u 
M2 Y C a_2_54# vdd pfet w=4u l=0.2u
+ ad=0p pd=0u as=0p ps=0u 
M3 a_12_6# A gnd Gnd nfet w=2u l=0.2u
+ ad=0p pd=0u as=0p ps=0u 
M4 Y B a_12_6# Gnd nfet w=2u l=0.2u
+ ad=0p pd=0u as=0p ps=0u 
M5 gnd C Y Gnd nfet w=1u l=0.2u
+ ad=0p pd=0u as=0p ps=0u 
.ends AOI21X1

.subckt AOI22X1 gnd vdd C D Y A B
M0 vdd A a_2_54# vdd pfet w=4u l=0.2u
+ ad=0p pd=0u as=0p ps=0u 
M1 a_2_54# B vdd vdd pfet w=4u l=0.2u
+ ad=0p pd=0u as=0p ps=0u 
M2 Y D a_2_54# vdd pfet w=4u l=0.2u
+ ad=0p pd=0u as=0p ps=0u 
M3 a_2_54# C Y vdd pfet w=4u l=0.2u
+ ad=0p pd=0u as=0p ps=0u 
M4 a_11_6# A gnd Gnd nfet w=2u l=0.2u
+ ad=0p pd=0u as=0p ps=0u 
M5 Y B a_11_6# Gnd nfet w=2u l=0.2u
+ ad=0p pd=0u as=0p ps=0u 
M6 a_28_6# D Y Gnd nfet w=2u l=0.2u
+ ad=0p pd=0u as=0p ps=0u 
M7 gnd C a_28_6# Gnd nfet w=2u l=0.2u
+ ad=0p pd=0u as=0p ps=0u 
.ends AOI22X1

.subckt BUFX2 vdd gnd A Y
M0 vdd A a_2_6# vdd pfet w=2u l=0.2u
+ ad=0p pd=0u as=0p ps=0u 
M1 Y a_2_6# vdd vdd pfet w=4u l=0.2u
+ ad=0p pd=0u as=0p ps=0u 
M2 gnd A a_2_6# Gnd nfet w=1u l=0.2u
+ ad=0p pd=0u as=0p ps=0u 
M3 Y a_2_6# gnd Gnd nfet w=2u l=0.2u
+ ad=0p pd=0u as=0p ps=0u 
.ends BUFX2

.subckt BUFX4 vdd gnd A Y
M0 vdd A a_2_6# vdd pfet w=3u l=0.2u
+ ad=0p pd=0u as=0p ps=0u 
M1 Y a_2_6# vdd vdd pfet w=4u l=0.2u
+ ad=0p pd=0u as=0p ps=0u 
M2 vdd a_2_6# Y vdd pfet w=4u l=0.2u
+ ad=0p pd=0u as=0p ps=0u 
M3 gnd A a_2_6# Gnd nfet w=1.5u l=0.2u
+ ad=0p pd=0u as=0p ps=0u 
M4 Y a_2_6# gnd Gnd nfet w=2u l=0.2u
+ ad=0p pd=0u as=0p ps=0u 
M5 gnd a_2_6# Y Gnd nfet w=2u l=0.2u
+ ad=0p pd=0u as=0p ps=0u 
.ends BUFX4

.subckt CLKBUF1 A vdd gnd Y
M0 a_9_6# A vdd vdd pfet w=4u l=0.2u
+ ad=0p pd=0u as=0p ps=0u 
M1 vdd A a_9_6# vdd pfet w=4u l=0.2u
+ ad=0p pd=0u as=0p ps=0u 
M2 a_25_6# a_9_6# vdd vdd pfet w=4u l=0.2u
+ ad=0p pd=0u as=0p ps=0u 
M3 vdd a_9_6# a_25_6# vdd pfet w=4u l=0.2u
+ ad=0p pd=0u as=0p ps=0u 
M4 a_41_6# a_25_6# vdd vdd pfet w=4u l=0.2u
+ ad=0p pd=0u as=0p ps=0u 
M5 vdd a_25_6# a_41_6# vdd pfet w=4u l=0.2u
+ ad=0p pd=0u as=0p ps=0u 
M6 Y a_41_6# vdd vdd pfet w=4u l=0.2u
+ ad=0p pd=0u as=0p ps=0u 
M7 vdd a_41_6# Y vdd pfet w=4u l=0.2u
+ ad=0p pd=0u as=0p ps=0u 
M8 a_9_6# A gnd Gnd nfet w=2u l=0.2u
+ ad=0p pd=0u as=0p ps=0u 
M9 gnd A a_9_6# Gnd nfet w=2u l=0.2u
+ ad=0p pd=0u as=0p ps=0u 
M10 a_25_6# a_9_6# gnd Gnd nfet w=2u l=0.2u
+ ad=0p pd=0u as=0p ps=0u 
M11 gnd a_9_6# a_25_6# Gnd nfet w=2u l=0.2u
+ ad=0p pd=0u as=0p ps=0u 
M12 a_41_6# a_25_6# gnd Gnd nfet w=2u l=0.2u
+ ad=0p pd=0u as=0p ps=0u 
M13 gnd a_25_6# a_41_6# Gnd nfet w=2u l=0.2u
+ ad=0p pd=0u as=0p ps=0u 
M14 Y a_41_6# gnd Gnd nfet w=2u l=0.2u
+ ad=0p pd=0u as=0p ps=0u 
M15 gnd a_41_6# Y Gnd nfet w=2u l=0.2u
+ ad=0p pd=0u as=0p ps=0u 
.ends CLKBUF1

.subckt CLKBUF2 vdd gnd A Y
M0 a_9_6# A vdd vdd pfet w=4u l=0.2u
+ ad=0p pd=0u as=0p ps=0u 
M1 vdd A a_9_6# vdd pfet w=4u l=0.2u
+ ad=0p pd=0u as=0p ps=0u 
M2 a_25_6# a_9_6# vdd vdd pfet w=4u l=0.2u
+ ad=0p pd=0u as=0p ps=0u 
M3 vdd a_9_6# a_25_6# vdd pfet w=4u l=0.2u
+ ad=0p pd=0u as=0p ps=0u 
M4 a_41_6# a_25_6# vdd vdd pfet w=4u l=0.2u
+ ad=0p pd=0u as=0p ps=0u 
M5 vdd a_25_6# a_41_6# vdd pfet w=4u l=0.2u
+ ad=0p pd=0u as=0p ps=0u 
M6 a_57_6# a_41_6# vdd vdd pfet w=4u l=0.2u
+ ad=0p pd=0u as=0p ps=0u 
M7 vdd a_41_6# a_57_6# vdd pfet w=4u l=0.2u
+ ad=0p pd=0u as=0p ps=0u 
M8 a_73_6# a_57_6# vdd vdd pfet w=4u l=0.2u
+ ad=0p pd=0u as=0p ps=0u 
M9 vdd a_57_6# a_73_6# vdd pfet w=4u l=0.2u
+ ad=0p pd=0u as=0p ps=0u 
M10 Y a_73_6# vdd vdd pfet w=4u l=0.2u
+ ad=0p pd=0u as=0p ps=0u 
M11 vdd a_73_6# Y vdd pfet w=4u l=0.2u
+ ad=0p pd=0u as=0p ps=0u 
M12 a_9_6# A gnd Gnd nfet w=2u l=0.2u
+ ad=0p pd=0u as=0p ps=0u 
M13 gnd A a_9_6# Gnd nfet w=2u l=0.2u
+ ad=0p pd=0u as=0p ps=0u 
M14 a_25_6# a_9_6# gnd Gnd nfet w=2u l=0.2u
+ ad=0p pd=0u as=0p ps=0u 
M15 gnd a_9_6# a_25_6# Gnd nfet w=2u l=0.2u
+ ad=0p pd=0u as=0p ps=0u 
M16 a_41_6# a_25_6# gnd Gnd nfet w=2u l=0.2u
+ ad=0p pd=0u as=0p ps=0u 
M17 gnd a_25_6# a_41_6# Gnd nfet w=2u l=0.2u
+ ad=0p pd=0u as=0p ps=0u 
M18 a_57_6# a_41_6# gnd Gnd nfet w=2u l=0.2u
+ ad=0p pd=0u as=0p ps=0u 
M19 gnd a_41_6# a_57_6# Gnd nfet w=2u l=0.2u
+ ad=0p pd=0u as=0p ps=0u 
M20 a_73_6# a_57_6# gnd Gnd nfet w=2u l=0.2u
+ ad=0p pd=0u as=0p ps=0u 
M21 gnd a_57_6# a_73_6# Gnd nfet w=2u l=0.2u
+ ad=0p pd=0u as=0p ps=0u 
M22 Y a_73_6# gnd Gnd nfet w=2u l=0.2u
+ ad=0p pd=0u as=0p ps=0u 
M23 gnd a_73_6# Y Gnd nfet w=2u l=0.2u
+ ad=0p pd=0u as=0p ps=0u 
.ends CLKBUF2

.subckt CLKBUF3 gnd vdd A Y
M0 a_9_6# A vdd vdd pfet w=4u l=0.2u
+ ad=0p pd=0u as=0p ps=0u 
M1 vdd A a_9_6# vdd pfet w=4u l=0.2u
+ ad=0p pd=0u as=0p ps=0u 
M2 a_25_6# a_9_6# vdd vdd pfet w=4u l=0.2u
+ ad=0p pd=0u as=0p ps=0u 
M3 vdd a_9_6# a_25_6# vdd pfet w=4u l=0.2u
+ ad=0p pd=0u as=0p ps=0u 
M4 a_41_6# a_25_6# vdd vdd pfet w=4u l=0.2u
+ ad=0p pd=0u as=0p ps=0u 
M5 vdd a_25_6# a_41_6# vdd pfet w=4u l=0.2u
+ ad=0p pd=0u as=0p ps=0u 
M6 a_57_6# a_41_6# vdd vdd pfet w=4u l=0.2u
+ ad=0p pd=0u as=0p ps=0u 
M7 vdd a_41_6# a_57_6# vdd pfet w=4u l=0.2u
+ ad=0p pd=0u as=0p ps=0u 
M8 a_73_6# a_57_6# vdd vdd pfet w=4u l=0.2u
+ ad=0p pd=0u as=0p ps=0u 
M9 vdd a_57_6# a_73_6# vdd pfet w=4u l=0.2u
+ ad=0p pd=0u as=0p ps=0u 
M10 a_89_6# a_73_6# vdd vdd pfet w=4u l=0.2u
+ ad=0p pd=0u as=0p ps=0u 
M11 vdd a_73_6# a_89_6# vdd pfet w=4u l=0.2u
+ ad=0p pd=0u as=0p ps=0u 
M12 a_105_6# a_89_6# vdd vdd pfet w=4u l=0.2u
+ ad=0p pd=0u as=0p ps=0u 
M13 vdd a_89_6# a_105_6# vdd pfet w=4u l=0.2u
+ ad=0p pd=0u as=0p ps=0u 
M14 Y a_105_6# vdd vdd pfet w=4u l=0.2u
+ ad=0p pd=0u as=0p ps=0u 
M15 vdd a_105_6# Y vdd pfet w=4u l=0.2u
+ ad=0p pd=0u as=0p ps=0u 
M16 a_9_6# A gnd Gnd nfet w=2u l=0.2u
+ ad=0p pd=0u as=0p ps=0u 
M17 gnd A a_9_6# Gnd nfet w=2u l=0.2u
+ ad=0p pd=0u as=0p ps=0u 
M18 a_25_6# a_9_6# gnd Gnd nfet w=2u l=0.2u
+ ad=0p pd=0u as=0p ps=0u 
M19 gnd a_9_6# a_25_6# Gnd nfet w=2u l=0.2u
+ ad=0p pd=0u as=0p ps=0u 
M20 a_41_6# a_25_6# gnd Gnd nfet w=2u l=0.2u
+ ad=0p pd=0u as=0p ps=0u 
M21 gnd a_25_6# a_41_6# Gnd nfet w=2u l=0.2u
+ ad=0p pd=0u as=0p ps=0u 
M22 a_57_6# a_41_6# gnd Gnd nfet w=2u l=0.2u
+ ad=0p pd=0u as=0p ps=0u 
M23 gnd a_41_6# a_57_6# Gnd nfet w=2u l=0.2u
+ ad=0p pd=0u as=0p ps=0u 
M24 a_73_6# a_57_6# gnd Gnd nfet w=2u l=0.2u
+ ad=0p pd=0u as=0p ps=0u 
M25 gnd a_57_6# a_73_6# Gnd nfet w=2u l=0.2u
+ ad=0p pd=0u as=0p ps=0u 
M26 a_89_6# a_73_6# gnd Gnd nfet w=2u l=0.2u
+ ad=0p pd=0u as=0p ps=0u 
M27 gnd a_73_6# a_89_6# Gnd nfet w=2u l=0.2u
+ ad=0p pd=0u as=0p ps=0u 
M28 a_105_6# a_89_6# gnd Gnd nfet w=2u l=0.2u
+ ad=0p pd=0u as=0p ps=0u 
M29 gnd a_89_6# a_105_6# Gnd nfet w=2u l=0.2u
+ ad=0p pd=0u as=0p ps=0u 
M30 Y a_105_6# gnd Gnd nfet w=2u l=0.2u
+ ad=0p pd=0u as=0p ps=0u 
M31 gnd a_105_6# Y Gnd nfet w=2u l=0.2u
+ ad=0p pd=0u as=0p ps=0u 
.ends CLKBUF3

.subckt DFFNEGX1 CLK vdd D gnd Q
M0 vdd CLK a_2_6# vdd pfet w=4u l=0.2u
+ ad=0p pd=0u as=0p ps=0u 
M1 a_17_74# D vdd vdd pfet w=2u l=0.2u
+ ad=0p pd=0u as=0p ps=0u 
M2 a_23_6# a_2_6# a_17_74# vdd pfet w=2u l=0.2u
+ ad=0p pd=0u as=0p ps=0u 
M3 a_31_74# CLK a_23_6# vdd pfet w=2u l=0.2u
+ ad=0p pd=0u as=0p ps=0u 
M4 vdd a_34_4# a_31_74# vdd pfet w=2u l=0.2u
+ ad=0p pd=0u as=0p ps=0u 
M5 a_34_4# a_23_6# vdd vdd pfet w=2u l=0.2u
+ ad=0p pd=0u as=0p ps=0u 
M6 a_61_74# a_34_4# vdd vdd pfet w=2u l=0.2u
+ ad=0p pd=0u as=0p ps=0u 
M7 a_66_6# CLK a_61_74# vdd pfet w=2u l=0.2u
+ ad=0p pd=0u as=0p ps=0u 
M8 a_76_84# a_2_6# a_66_6# vdd pfet w=1u l=0.2u
+ ad=0p pd=0u as=0p ps=0u 
M9 vdd Q a_76_84# vdd pfet w=1u l=0.2u
+ ad=0p pd=0u as=0p ps=0u 
M10 gnd CLK a_2_6# Gnd nfet w=2u l=0.2u
+ ad=0p pd=0u as=0p ps=0u 
M11 Q a_66_6# vdd vdd pfet w=4u l=0.2u
+ ad=0p pd=0u as=0p ps=0u 
M12 a_17_6# D gnd Gnd nfet w=1u l=0.2u
+ ad=0p pd=0u as=0p ps=0u 
M13 a_23_6# CLK a_17_6# Gnd nfet w=1u l=0.2u
+ ad=0p pd=0u as=0p ps=0u 
M14 a_31_6# a_2_6# a_23_6# Gnd nfet w=1u l=0.2u
+ ad=0p pd=0u as=0p ps=0u 
M15 gnd a_34_4# a_31_6# Gnd nfet w=1u l=0.2u
+ ad=0p pd=0u as=0p ps=0u 
M16 a_34_4# a_23_6# gnd Gnd nfet w=1u l=0.2u
+ ad=0p pd=0u as=0p ps=0u 
M17 a_61_6# a_34_4# gnd Gnd nfet w=1u l=0.2u
+ ad=0p pd=0u as=0p ps=0u 
M18 a_66_6# a_2_6# a_61_6# Gnd nfet w=1u l=0.2u
+ ad=0p pd=0u as=0p ps=0u 
M19 a_76_6# CLK a_66_6# Gnd nfet w=1u l=0.2u
+ ad=0p pd=0u as=0p ps=0u 
M20 gnd Q a_76_6# Gnd nfet w=1u l=0.2u
+ ad=0p pd=0u as=0p ps=0u 
M21 Q a_66_6# gnd Gnd nfet w=2u l=0.2u
+ ad=0p pd=0u as=0p ps=0u 
.ends DFFNEGX1

.subckt DFFPOSX1 vdd D gnd Q CLK
M0 vdd CLK a_2_6# vdd pfet w=4u l=0.2u
+ ad=0p pd=0u as=0p ps=0u 
M1 a_17_74# D vdd vdd pfet w=2u l=0.2u
+ ad=0p pd=0u as=0p ps=0u 
M2 a_22_6# CLK a_17_74# vdd pfet w=2u l=0.2u
+ ad=0p pd=0u as=0p ps=0u 
M3 a_31_74# a_2_6# a_22_6# vdd pfet w=2u l=0.2u
+ ad=0p pd=0u as=0p ps=0u 
M4 vdd a_34_4# a_31_74# vdd pfet w=2u l=0.2u
+ ad=0p pd=0u as=0p ps=0u 
M5 a_34_4# a_22_6# vdd vdd pfet w=2u l=0.2u
+ ad=0p pd=0u as=0p ps=0u 
M6 a_61_74# a_34_4# vdd vdd pfet w=2u l=0.2u
+ ad=0p pd=0u as=0p ps=0u 
M7 a_66_6# a_2_6# a_61_74# vdd pfet w=2u l=0.2u
+ ad=0p pd=0u as=0p ps=0u 
M8 a_76_84# CLK a_66_6# vdd pfet w=1u l=0.2u
+ ad=0p pd=0u as=0p ps=0u 
M9 vdd Q a_76_84# vdd pfet w=1u l=0.2u
+ ad=0p pd=0u as=0p ps=0u 
M10 gnd CLK a_2_6# Gnd nfet w=2u l=0.2u
+ ad=0p pd=0u as=0p ps=0u 
M11 Q a_66_6# vdd vdd pfet w=4u l=0.2u
+ ad=0p pd=0u as=0p ps=0u 
M12 a_17_6# D gnd Gnd nfet w=1u l=0.2u
+ ad=0p pd=0u as=0p ps=0u 
M13 a_22_6# a_2_6# a_17_6# Gnd nfet w=1u l=0.2u
+ ad=0p pd=0u as=0p ps=0u 
M14 a_31_6# CLK a_22_6# Gnd nfet w=1u l=0.2u
+ ad=0p pd=0u as=0p ps=0u 
M15 gnd a_34_4# a_31_6# Gnd nfet w=1u l=0.2u
+ ad=0p pd=0u as=0p ps=0u 
M16 a_34_4# a_22_6# gnd Gnd nfet w=1u l=0.2u
+ ad=0p pd=0u as=0p ps=0u 
M17 a_61_6# a_34_4# gnd Gnd nfet w=1u l=0.2u
+ ad=0p pd=0u as=0p ps=0u 
M18 a_66_6# CLK a_61_6# Gnd nfet w=1u l=0.2u
+ ad=0p pd=0u as=0p ps=0u 
M19 a_76_6# a_2_6# a_66_6# Gnd nfet w=1u l=0.2u
+ ad=0p pd=0u as=0p ps=0u 
M20 gnd Q a_76_6# Gnd nfet w=1u l=0.2u
+ ad=0p pd=0u as=0p ps=0u 
M21 Q a_66_6# gnd Gnd nfet w=2u l=0.2u
+ ad=0p pd=0u as=0p ps=0u 
.ends DFFPOSX1

.subckt DFFSR gnd vdd D S R Q CLK
M0 a_2_6# R vdd vdd pfet w=2u l=0.2u
+ ad=0p pd=0u as=0p ps=0u 
M1 vdd a_10_61# a_2_6# vdd pfet w=2u l=0.2u
+ ad=0p pd=0u as=0p ps=0u 
M2 a_10_61# a_23_27# vdd vdd pfet w=2u l=0.2u
+ ad=0p pd=0u as=0p ps=0u 
M3 vdd S a_10_61# vdd pfet w=2u l=0.2u
+ ad=0p pd=0u as=0p ps=0u 
M4 a_23_27# a_47_71# a_2_6# vdd pfet w=1u l=0.2u
+ ad=0p pd=0u as=0p ps=0u 
M5 a_57_6# a_47_4# a_23_27# vdd pfet w=1u l=0.2u
+ ad=0p pd=0u as=0p ps=0u 
M6 vdd D a_57_6# vdd pfet w=2u l=0.2u
+ ad=0p pd=0u as=0p ps=0u 
M7 vdd a_47_71# a_47_4# vdd pfet w=2u l=0.2u
+ ad=0p pd=0u as=0p ps=0u 
M8 a_47_71# CLK vdd vdd pfet w=2u l=0.2u
+ ad=0p pd=0u as=0p ps=0u 
M9 a_105_6# a_47_71# a_10_61# vdd pfet w=1u l=0.2u
+ ad=0p pd=0u as=0p ps=0u 
M10 a_113_6# a_47_4# a_105_6# vdd pfet w=1u l=0.2u
+ ad=0p pd=0u as=0p ps=0u 
M11 a_122_6# a_105_6# vdd vdd pfet w=2u l=0.2u
+ ad=0p pd=0u as=0p ps=0u 
M12 vdd R a_122_6# vdd pfet w=2u l=0.2u
+ ad=0p pd=0u as=0p ps=0u 
M13 a_113_6# a_122_6# vdd vdd pfet w=2u l=0.2u
+ ad=0p pd=0u as=0p ps=0u 
M14 vdd S a_113_6# vdd pfet w=2u l=0.2u
+ ad=0p pd=0u as=0p ps=0u 
M15 vdd a_122_6# Q vdd pfet w=2u l=0.2u
+ ad=0p pd=0u as=0p ps=0u 
M16 a_10_6# R a_2_6# Gnd nfet w=2u l=0.2u
+ ad=0p pd=0u as=0p ps=0u 
M17 gnd a_10_61# a_10_6# Gnd nfet w=2u l=0.2u
+ ad=0p pd=0u as=0p ps=0u 
M18 a_26_6# a_23_27# gnd Gnd nfet w=2u l=0.2u
+ ad=0p pd=0u as=0p ps=0u 
M19 a_10_61# S a_26_6# Gnd nfet w=2u l=0.2u
+ ad=0p pd=0u as=0p ps=0u 
M20 a_23_27# a_47_4# a_2_6# Gnd nfet w=1u l=0.2u
+ ad=0p pd=0u as=0p ps=0u 
M21 a_57_6# a_47_71# a_23_27# Gnd nfet w=1u l=0.2u
+ ad=0p pd=0u as=0p ps=0u 
M22 gnd D a_57_6# Gnd nfet w=1u l=0.2u
+ ad=0p pd=0u as=0p ps=0u 
M23 gnd a_47_71# a_47_4# Gnd nfet w=1u l=0.2u
+ ad=0p pd=0u as=0p ps=0u 
M24 a_47_71# CLK gnd Gnd nfet w=1u l=0.2u
+ ad=0p pd=0u as=0p ps=0u 
M25 a_105_6# a_47_4# a_10_61# Gnd nfet w=1u l=0.2u
+ ad=0p pd=0u as=0p ps=0u 
M26 a_113_6# a_47_71# a_105_6# Gnd nfet w=1u l=0.2u
+ ad=0p pd=0u as=0p ps=0u 
M27 a_130_6# a_105_6# a_122_6# Gnd nfet w=2u l=0.2u
+ ad=0p pd=0u as=0p ps=0u 
M28 gnd R a_130_6# Gnd nfet w=2u l=0.2u
+ ad=0p pd=0u as=0p ps=0u 
M29 a_146_6# a_122_6# gnd Gnd nfet w=2u l=0.2u
+ ad=0p pd=0u as=0p ps=0u 
M30 a_113_6# S a_146_6# Gnd nfet w=2u l=0.2u
+ ad=0p pd=0u as=0p ps=0u 
M31 gnd a_122_6# Q Gnd nfet w=1u l=0.2u
+ ad=0p pd=0u as=0p ps=0u 
.ends DFFSR

.subckt FAX1 gnd vdd A B C YC YS
M0 vdd A a_2_54# vdd pfet w=4u l=0.2u
+ ad=0p pd=0u as=0p ps=0u 
M1 a_2_54# B vdd vdd pfet w=4u l=0.2u
+ ad=0p pd=0u as=0p ps=0u 
M2 a_25_6# C a_2_54# vdd pfet w=4u l=0.2u
+ ad=0p pd=0u as=0p ps=0u 
M3 a_33_54# B a_25_6# vdd pfet w=4u l=0.2u
+ ad=0p pd=0u as=0p ps=0u 
M4 vdd A a_33_54# vdd pfet w=4u l=0.2u
+ ad=0p pd=0u as=0p ps=0u 
M5 a_46_54# A vdd vdd pfet w=4u l=0.2u
+ ad=0p pd=0u as=0p ps=0u 
M6 vdd B a_46_54# vdd pfet w=3.6u l=0.2u
+ ad=0p pd=0u as=0p ps=0u 
M7 a_46_54# C vdd vdd pfet w=3.6u l=0.2u
+ ad=0p pd=0u as=0p ps=0u 
M8 a_70_6# a_25_6# a_46_54# vdd pfet w=3.6u l=0.2u
+ ad=0p pd=0u as=0p ps=0u 
M9 a_79_46# C a_70_6# vdd pfet w=4.8u l=0.2u
+ ad=0p pd=0u as=0p ps=0u 
M10 a_84_46# B a_79_46# vdd pfet w=4.8u l=0.2u
+ ad=0p pd=0u as=0p ps=0u 
M11 vdd A a_84_46# vdd pfet w=4.8u l=0.2u
+ ad=0p pd=0u as=0p ps=0u 
M12 YS a_70_6# vdd vdd pfet w=2u l=0.2u
+ ad=0p pd=0u as=0p ps=0u 
M13 YC a_25_6# vdd vdd pfet w=2u l=0.2u
+ ad=0p pd=0u as=0p ps=0u 
M14 gnd A a_2_6# Gnd nfet w=2u l=0.2u
+ ad=0p pd=0u as=0p ps=0u 
M15 a_2_6# B gnd Gnd nfet w=2u l=0.2u
+ ad=0p pd=0u as=0p ps=0u 
M16 a_25_6# C a_2_6# Gnd nfet w=2u l=0.2u
+ ad=0p pd=0u as=0p ps=0u 
M17 a_33_6# B a_25_6# Gnd nfet w=2u l=0.2u
+ ad=0p pd=0u as=0p ps=0u 
M18 gnd A a_33_6# Gnd nfet w=2u l=0.2u
+ ad=0p pd=0u as=0p ps=0u 
M19 a_46_6# A gnd Gnd nfet w=2u l=0.2u
+ ad=0p pd=0u as=0p ps=0u 
M20 gnd B a_46_6# Gnd nfet w=2u l=0.2u
+ ad=0p pd=0u as=0p ps=0u 
M21 a_46_6# C gnd Gnd nfet w=2u l=0.2u
+ ad=0p pd=0u as=0p ps=0u 
M22 a_70_6# a_25_6# a_46_6# Gnd nfet w=2u l=0.2u
+ ad=0p pd=0u as=0p ps=0u 
M23 a_79_6# C a_70_6# Gnd nfet w=2u l=0.2u
+ ad=0p pd=0u as=0p ps=0u 
M24 a_84_6# B a_79_6# Gnd nfet w=2u l=0.2u
+ ad=0p pd=0u as=0p ps=0u 
M25 gnd A a_84_6# Gnd nfet w=2u l=0.2u
+ ad=0p pd=0u as=0p ps=0u 
M26 YS a_70_6# gnd Gnd nfet w=1u l=0.2u
+ ad=0p pd=0u as=0p ps=0u 
M27 YC a_25_6# gnd Gnd nfet w=1u l=0.2u
+ ad=0p pd=0u as=0p ps=0u 
.ends FAX1

.subckt FILL vdd gnd
.ends FILL

.subckt HAX1 vdd gnd YC A B YS
M0 vdd A a_2_74# vdd pfet w=2u l=0.2u
+ ad=0p pd=0u as=0p ps=0u 
M1 a_2_74# B vdd vdd pfet w=2u l=0.2u
+ ad=0p pd=0u as=0p ps=0u 
M2 vdd a_2_74# YC vdd pfet w=2u l=0.2u
+ ad=0p pd=0u as=0p ps=0u 
M3 a_41_74# a_2_74# vdd vdd pfet w=2u l=0.2u
+ ad=0p pd=0u as=0p ps=0u 
M4 a_49_54# B a_41_74# vdd pfet w=4u l=0.2u
+ ad=0p pd=0u as=0p ps=0u 
M5 vdd A a_49_54# vdd pfet w=4u l=0.2u
+ ad=0p pd=0u as=0p ps=0u 
M6 YS a_41_74# vdd vdd pfet w=2u l=0.2u
+ ad=0p pd=0u as=0p ps=0u 
M7 a_9_6# A gnd Gnd nfet w=2u l=0.2u
+ ad=0p pd=0u as=0p ps=0u 
M8 a_2_74# B a_9_6# Gnd nfet w=2u l=0.2u
+ ad=0p pd=0u as=0p ps=0u 
M9 gnd a_2_74# YC Gnd nfet w=1u l=0.2u
+ ad=0p pd=0u as=0p ps=0u 
M10 a_38_6# a_2_74# gnd Gnd nfet w=2u l=0.2u
+ ad=0p pd=0u as=0p ps=0u 
M11 a_41_74# B a_38_6# Gnd nfet w=2u l=0.2u
+ ad=0p pd=0u as=0p ps=0u 
M12 a_38_6# A a_41_74# Gnd nfet w=2u l=0.2u
+ ad=0p pd=0u as=0p ps=0u 
M13 YS a_41_74# gnd Gnd nfet w=1u l=0.2u
+ ad=0p pd=0u as=0p ps=0u 
.ends HAX1

.subckt INVX1 A Y vdd gnd
M0 Y A vdd vdd pfet w=2u l=0.2u
+ ad=0p pd=0u as=0p ps=0u 
M1 Y A gnd Gnd nfet w=1u l=0.2u
+ ad=0p pd=0u as=0p ps=0u 
.ends INVX1

.subckt INVX2 vdd gnd Y A
M0 Y A vdd vdd pfet w=4u l=0.2u
+ ad=0p pd=0u as=0p ps=0u 
M1 Y A gnd Gnd nfet w=2u l=0.2u
+ ad=0p pd=0u as=0p ps=0u 
.ends INVX2

.subckt INVX4 vdd gnd Y A
M0 Y A vdd vdd pfet w=4u l=0.2u
+ ad=0p pd=0u as=0p ps=0u 
M1 vdd A Y vdd pfet w=4u l=0.2u
+ ad=0p pd=0u as=0p ps=0u 
M2 Y A gnd Gnd nfet w=2u l=0.2u
+ ad=0p pd=0u as=0p ps=0u 
M3 gnd A Y Gnd nfet w=2u l=0.2u
+ ad=0p pd=0u as=0p ps=0u 
.ends INVX4

.subckt INVX8 vdd gnd A Y
M0 Y A vdd vdd pfet w=4u l=0.2u
+ ad=0p pd=0u as=0p ps=0u 
M1 vdd A Y vdd pfet w=4u l=0.2u
+ ad=0p pd=0u as=0p ps=0u 
M2 Y A vdd vdd pfet w=4u l=0.2u
+ ad=0p pd=0u as=0p ps=0u 
M3 vdd A Y vdd pfet w=4u l=0.2u
+ ad=0p pd=0u as=0p ps=0u 
M4 Y A gnd Gnd nfet w=2u l=0.2u
+ ad=0p pd=0u as=0p ps=0u 
M5 gnd A Y Gnd nfet w=2u l=0.2u
+ ad=0p pd=0u as=0p ps=0u 
M6 Y A gnd Gnd nfet w=2u l=0.2u
+ ad=0p pd=0u as=0p ps=0u 
M7 gnd A Y Gnd nfet w=2u l=0.2u
+ ad=0p pd=0u as=0p ps=0u 
.ends INVX8

.subckt LATCH D Q gnd vdd CLK
M0 vdd CLK a_2_6# vdd pfet w=4u l=0.2u
+ ad=0p pd=0u as=0p ps=0u 
M1 a_18_74# D vdd vdd pfet w=2u l=0.2u
+ ad=0p pd=0u as=0p ps=0u 
M2 a_23_6# a_2_6# a_18_74# vdd pfet w=2u l=0.2u
+ ad=0p pd=0u as=0p ps=0u 
M3 a_35_84# CLK a_23_6# vdd pfet w=1u l=0.2u
+ ad=0p pd=0u as=0p ps=0u 
M4 vdd Q a_35_84# vdd pfet w=1u l=0.2u
+ ad=0p pd=0u as=0p ps=0u 
M5 gnd CLK a_2_6# Gnd nfet w=2u l=0.2u
+ ad=0p pd=0u as=0p ps=0u 
M6 Q a_23_6# vdd vdd pfet w=4u l=0.2u
+ ad=0p pd=0u as=0p ps=0u 
M7 a_18_6# D gnd Gnd nfet w=1u l=0.2u
+ ad=0p pd=0u as=0p ps=0u 
M8 a_23_6# CLK a_18_6# Gnd nfet w=1u l=0.2u
+ ad=0p pd=0u as=0p ps=0u 
M9 a_35_6# a_2_6# a_23_6# Gnd nfet w=1u l=0.2u
+ ad=0p pd=0u as=0p ps=0u 
M10 gnd Q a_35_6# Gnd nfet w=1u l=0.2u
+ ad=0p pd=0u as=0p ps=0u 
M11 Q a_23_6# gnd Gnd nfet w=2u l=0.2u
+ ad=0p pd=0u as=0p ps=0u 
.ends LATCH

.subckt MUX2X1 S vdd gnd Y A B
M0 vdd S a_2_10# vdd pfet w=2u l=0.2u
+ ad=0p pd=0u as=0p ps=0u 
M1 a_17_50# B vdd vdd pfet w=4u l=0.2u
+ ad=0p pd=0u as=0p ps=0u 
M2 Y S a_17_50# vdd pfet w=4u l=0.2u
+ ad=0p pd=0u as=0p ps=0u 
M3 a_30_54# a_2_10# Y vdd pfet w=4u l=0.2u
+ ad=0p pd=0u as=0p ps=0u 
M4 vdd A a_30_54# vdd pfet w=4u l=0.2u
+ ad=0p pd=0u as=0p ps=0u 
M5 gnd S a_2_10# Gnd nfet w=1u l=0.2u
+ ad=0p pd=0u as=0p ps=0u 
M6 a_17_10# B gnd Gnd nfet w=2u l=0.2u
+ ad=0p pd=0u as=0p ps=0u 
M7 Y a_2_10# a_17_10# Gnd nfet w=2u l=0.2u
+ ad=0p pd=0u as=0p ps=0u 
M8 a_30_10# S Y Gnd nfet w=2u l=0.2u
+ ad=0p pd=0u as=0p ps=0u 
M9 gnd A a_30_10# Gnd nfet w=2u l=0.2u
+ ad=0p pd=0u as=0p ps=0u 
.ends MUX2X1

.subckt NAND2X1 vdd Y gnd A B
M0 Y A vdd vdd pfet w=2u l=0.2u
+ ad=0p pd=0u as=0p ps=0u 
M1 vdd B Y vdd pfet w=2u l=0.2u
+ ad=0p pd=0u as=0p ps=0u 
M2 a_9_6# A gnd Gnd nfet w=2u l=0.2u
+ ad=0p pd=0u as=0p ps=0u 
M3 Y B a_9_6# Gnd nfet w=2u l=0.2u
+ ad=0p pd=0u as=0p ps=0u 
.ends NAND2X1

.subckt NAND3X1 B vdd gnd A C Y
M0 Y A vdd vdd pfet w=2u l=0.2u
+ ad=0p pd=0u as=0p ps=0u 
M1 vdd B Y vdd pfet w=2u l=0.2u
+ ad=0p pd=0u as=0p ps=0u 
M2 Y C vdd vdd pfet w=2u l=0.2u
+ ad=0p pd=0u as=0p ps=0u 
M3 a_9_6# A gnd Gnd nfet w=3u l=0.2u
+ ad=0p pd=0u as=0p ps=0u 
M4 a_14_6# B a_9_6# Gnd nfet w=3u l=0.2u
+ ad=0p pd=0u as=0p ps=0u 
M5 Y C a_14_6# Gnd nfet w=3u l=0.2u
+ ad=0p pd=0u as=0p ps=0u 
.ends NAND3X1

.subckt NOR2X1 vdd B gnd Y A
M0 a_9_54# A vdd vdd pfet w=4u l=0.2u
+ ad=0p pd=0u as=0p ps=0u 
M1 Y B a_9_54# vdd pfet w=4u l=0.2u
+ ad=0p pd=0u as=0p ps=0u 
M2 Y A gnd Gnd nfet w=1u l=0.2u
+ ad=0p pd=0u as=0p ps=0u 
M3 gnd B Y Gnd nfet w=1u l=0.2u
+ ad=0p pd=0u as=0p ps=0u 
.ends NOR2X1

.subckt NOR3X1 vdd gnd B C A Y
M0 vdd A a_2_64# vdd pfet w=3u l=0.2u
+ ad=0p pd=0u as=0p ps=0u 
M1 a_2_64# A vdd vdd pfet w=3u l=0.2u
+ ad=0p pd=0u as=0p ps=0u 
M2 a_25_64# B a_2_64# vdd pfet w=3u l=0.2u
+ ad=0p pd=0u as=0p ps=0u 
M3 a_2_64# B a_25_64# vdd pfet w=3u l=0.2u
+ ad=0p pd=0u as=0p ps=0u 
M4 Y C a_25_64# vdd pfet w=3u l=0.2u
+ ad=0p pd=0u as=0p ps=0u 
M5 a_25_64# C Y vdd pfet w=3u l=0.2u
+ ad=0p pd=0u as=0p ps=0u 
M6 Y A gnd Gnd nfet w=1u l=0.2u
+ ad=0p pd=0u as=0p ps=0u 
M7 gnd B Y Gnd nfet w=1u l=0.2u
+ ad=0p pd=0u as=0p ps=0u 
M8 Y C gnd Gnd nfet w=1u l=0.2u
+ ad=0p pd=0u as=0p ps=0u 
.ends NOR3X1

.subckt OAI21X1 gnd vdd A B Y C
M0 a_9_54# A vdd vdd pfet w=4u l=0.2u
+ ad=0p pd=0u as=0p ps=0u 
M1 Y B a_9_54# vdd pfet w=4u l=0.2u
+ ad=0p pd=0u as=0p ps=0u 
M2 vdd C Y vdd pfet w=2u l=0.2u
+ ad=0p pd=0u as=0p ps=0u 
M3 gnd A a_2_6# Gnd nfet w=2u l=0.2u
+ ad=0p pd=0u as=0p ps=0u 
M4 a_2_6# B gnd Gnd nfet w=2u l=0.2u
+ ad=0p pd=0u as=0p ps=0u 
M5 Y C a_2_6# Gnd nfet w=2u l=0.2u
+ ad=0p pd=0u as=0p ps=0u 
.ends OAI21X1

.subckt OAI22X1 gnd vdd D C A B Y
M0 a_9_54# A vdd vdd pfet w=4u l=0.2u
+ ad=0p pd=0u as=0p ps=0u 
M1 Y B a_9_54# vdd pfet w=4u l=0.2u
+ ad=0p pd=0u as=0p ps=0u 
M2 a_28_54# D Y vdd pfet w=4u l=0.2u
+ ad=0p pd=0u as=0p ps=0u 
M3 vdd C a_28_54# vdd pfet w=4u l=0.2u
+ ad=0p pd=0u as=0p ps=0u 
M4 gnd A a_2_6# Gnd nfet w=2u l=0.2u
+ ad=0p pd=0u as=0p ps=0u 
M5 a_2_6# B gnd Gnd nfet w=2u l=0.2u
+ ad=0p pd=0u as=0p ps=0u 
M6 Y D a_2_6# Gnd nfet w=2u l=0.2u
+ ad=0p pd=0u as=0p ps=0u 
M7 a_2_6# C Y Gnd nfet w=2u l=0.2u
+ ad=0p pd=0u as=0p ps=0u 
.ends OAI22X1

.subckt OR2X1 Y B vdd gnd A
M0 a_9_54# A a_2_54# vdd pfet w=4u l=0.2u
+ ad=0p pd=0u as=0p ps=0u 
M1 vdd B a_9_54# vdd pfet w=4u l=0.2u
+ ad=0p pd=0u as=0p ps=0u 
M2 Y a_2_54# vdd vdd pfet w=2u l=0.2u
+ ad=0p pd=0u as=0p ps=0u 
M3 a_2_54# A gnd Gnd nfet w=1u l=0.2u
+ ad=0p pd=0u as=0p ps=0u 
M4 gnd B a_2_54# Gnd nfet w=1u l=0.2u
+ ad=0p pd=0u as=0p ps=0u 
M5 Y a_2_54# gnd Gnd nfet w=1u l=0.2u
+ ad=0p pd=0u as=0p ps=0u 
.ends OR2X1

.subckt OR2X2 Y B vdd gnd A
M0 a_9_54# A a_2_54# vdd pfet w=4u l=0.2u
+ ad=0p pd=0u as=0p ps=0u 
M1 vdd B a_9_54# vdd pfet w=4u l=0.2u
+ ad=0p pd=0u as=0p ps=0u 
M2 Y a_2_54# vdd vdd pfet w=4u l=0.2u
+ ad=0p pd=0u as=0p ps=0u 
M3 a_2_54# A gnd Gnd nfet w=1u l=0.2u
+ ad=0p pd=0u as=0p ps=0u 
M4 gnd B a_2_54# Gnd nfet w=1u l=0.2u
+ ad=0p pd=0u as=0p ps=0u 
M5 Y a_2_54# gnd Gnd nfet w=2u l=0.2u
+ ad=0p pd=0u as=0p ps=0u 
.ends OR2X2

.subckt TBUFX1 vdd gnd EN A Y
M0 a_9_6# EN vdd vdd pfet w=2u l=0.2u
+ ad=0p pd=0u as=0p ps=0u 
M1 a_26_54# a_9_6# Y vdd pfet w=4u l=0.2u
+ ad=0p pd=0u as=0p ps=0u 
M2 vdd A a_26_54# vdd pfet w=4u l=0.2u
+ ad=0p pd=0u as=0p ps=0u 
M3 a_9_6# EN gnd Gnd nfet w=1u l=0.2u
+ ad=0p pd=0u as=0p ps=0u 
M4 a_26_6# EN Y Gnd nfet w=2u l=0.2u
+ ad=0p pd=0u as=0p ps=0u 
M5 gnd A a_26_6# Gnd nfet w=2u l=0.2u
+ ad=0p pd=0u as=0p ps=0u 
.ends TBUFX1

.subckt TBUFX2 vdd gnd A EN Y
M0 a_9_6# EN vdd vdd pfet w=4u l=0.2u
+ ad=0p pd=0u as=0p ps=0u 
M1 Y a_9_6# a_18_54# vdd pfet w=4u l=0.2u
+ ad=0p pd=0u as=0p ps=0u 
M2 a_18_54# a_9_6# Y vdd pfet w=4u l=0.2u
+ ad=0p pd=0u as=0p ps=0u 
M3 vdd A a_18_54# vdd pfet w=4u l=0.2u
+ ad=0p pd=0u as=0p ps=0u 
M4 a_18_54# A vdd vdd pfet w=4u l=0.2u
+ ad=0p pd=0u as=0p ps=0u 
M5 a_9_6# EN gnd Gnd nfet w=2u l=0.2u
+ ad=0p pd=0u as=0p ps=0u 
M6 Y EN a_18_6# Gnd nfet w=2u l=0.2u
+ ad=0p pd=0u as=0p ps=0u 
M7 a_18_6# EN Y Gnd nfet w=2u l=0.2u
+ ad=0p pd=0u as=0p ps=0u 
M8 gnd A a_18_6# Gnd nfet w=2u l=0.2u
+ ad=0p pd=0u as=0p ps=0u 
M9 a_18_6# A gnd Gnd nfet w=2u l=0.2u
+ ad=0p pd=0u as=0p ps=0u 
.ends TBUFX2

.subckt XNOR2X1 A B gnd vdd Y
M0 vdd A a_2_6# vdd pfet w=4u l=0.2u
+ ad=0p pd=0u as=0p ps=0u 
M1 a_18_54# a_12_41# vdd vdd pfet w=4u l=0.2u
+ ad=0p pd=0u as=0p ps=0u 
M2 Y a_2_6# a_18_54# vdd pfet w=4u l=0.2u
+ ad=0p pd=0u as=0p ps=0u 
M3 a_35_54# A Y vdd pfet w=4u l=0.2u
+ ad=0p pd=0u as=0p ps=0u 
M4 vdd B a_35_54# vdd pfet w=4u l=0.2u
+ ad=0p pd=0u as=0p ps=0u 
M5 a_12_41# B vdd vdd pfet w=4u l=0.2u
+ ad=0p pd=0u as=0p ps=0u 
M6 gnd A a_2_6# Gnd nfet w=2u l=0.2u
+ ad=0p pd=0u as=0p ps=0u 
M7 a_18_6# a_12_41# gnd Gnd nfet w=2u l=0.2u
+ ad=0p pd=0u as=0p ps=0u 
M8 Y A a_18_6# Gnd nfet w=2u l=0.2u
+ ad=0p pd=0u as=0p ps=0u 
M9 a_35_6# a_2_6# Y Gnd nfet w=2u l=0.2u
+ ad=0p pd=0u as=0p ps=0u 
M10 gnd B a_35_6# Gnd nfet w=2u l=0.2u
+ ad=0p pd=0u as=0p ps=0u 
M11 a_12_41# B gnd Gnd nfet w=2u l=0.2u
+ ad=0p pd=0u as=0p ps=0u 
.ends XNOR2X1

.subckt XOR2X1 Y vdd B A gnd
M0 vdd A a_2_6# vdd pfet w=4u l=0.2u
+ ad=0p pd=0u as=0p ps=0u 
M1 a_18_54# a_13_43# vdd vdd pfet w=4u l=0.2u
+ ad=0p pd=0u as=0p ps=0u 
M2 Y A a_18_54# vdd pfet w=4u l=0.2u
+ ad=0p pd=0u as=0p ps=0u 
M3 a_35_54# a_2_6# Y vdd pfet w=4u l=0.2u
+ ad=0p pd=0u as=0p ps=0u 
M4 vdd B a_35_54# vdd pfet w=4u l=0.2u
+ ad=0p pd=0u as=0p ps=0u 
M5 a_13_43# B vdd vdd pfet w=4u l=0.2u
+ ad=0p pd=0u as=0p ps=0u 
M6 gnd A a_2_6# Gnd nfet w=2u l=0.2u
+ ad=0p pd=0u as=0p ps=0u 
M7 a_18_6# a_13_43# gnd Gnd nfet w=2u l=0.2u
+ ad=0p pd=0u as=0p ps=0u 
M8 Y a_2_6# a_18_6# Gnd nfet w=2u l=0.2u
+ ad=0p pd=0u as=0p ps=0u 
M9 a_35_6# A Y Gnd nfet w=2u l=0.2u
+ ad=0p pd=0u as=0p ps=0u 
M10 gnd B a_35_6# Gnd nfet w=2u l=0.2u
+ ad=0p pd=0u as=0p ps=0u 
M11 a_13_43# B gnd Gnd nfet w=2u l=0.2u
+ ad=0p pd=0u as=0p ps=0u 
.ends XOR2X1

** End of included library /usr/local/share/qflow/tech/osu018/osu018_stdcells.sp

.subckt multiplierBeh vdd gnd a[0] a[1] a[2] a[3] a[4]
+ a[5] a[6] a[7] a[8] a[9] a[10] a[11] a[12]
+ a[13] a[14] a[15] a[16] a[17] a[18] a[19] a[20]
+ a[21] a[22] a[23] a[24] a[25] a[26] a[27] a[28]
+ a[29] a[30] a[31] b[0] b[1] b[2] b[3] b[4]
+ b[5] b[6] b[7] b[8] b[9] b[10] b[11] b[12]
+ b[13] b[14] b[15] b[16] b[17] b[18] b[19] b[20]
+ b[21] b[22] b[23] b[24] b[25] b[26] b[27] b[28]
+ b[29] b[30] b[31] clk y[0] y[1] y[2] y[3]
+ y[4] y[5] y[6] y[7] y[8] y[9] y[10] y[11]
+ y[12] y[13] y[14] y[15] y[16] y[17] y[18] y[19]
+ y[20] y[21] y[22] y[23] y[24] y[25] y[26] y[27]
+ y[28] y[29] y[30] y[31] y[32] y[33] y[34] y[35]
+ y[36] y[37] y[38] y[39] y[40] y[41] y[42] y[43]
+ y[44] y[45] y[46] y[47] y[48] y[49] y[50] y[51]
+ y[52] y[53] y[54] y[55] y[56] y[57] y[58] y[59]
+ y[60] y[61] y[62] y[63] 

X_21787_ vdd gnd _3_ _6_ _7_ _8_ NOR3X1
X_21367_ gnd vdd _3529__bF$buf2 _5921__bF$buf3 _11457_ _11155_ OAI21X1
X_17915_ vdd _7672_ gnd areg_3_bF$buf2 breg_29_bF$buf3 NAND2X1
X_12630_ gnd vdd _10244_ _10178_ _10255_ _10035_ OAI21X1
X_12210_ gnd vdd _5409_ _5343_ _5651_ _5640_ OAI21X1
XFILL74120x50 vdd gnd FILL
X_13835_ _3202_ vdd gnd _3199_ _3197_ _3203_ NAND3X1
X_13415_ _2741_ vdd gnd _2527_ _2742_ _2743_ NAND3X1
X_23933_ vdd gnd _11909_[51] y[51] BUFX2
X_23513_ vdd _7225__bF$buf2 gnd _1894_ _5921__bF$buf1 NOR2X1
X_18873_ gnd vdd _8714_ _8722_ _8723_ _8701_ AOI21X1
X_18453_ vdd _8217_ gnd _8263_ _8221_ NOR2X1
X_18033_ vdd _7802_ gnd areg_14_bF$buf3 breg_19_bF$buf5 NAND2X1
X_20638_ _10641_ vdd gnd _10341_ _10648_ _10658_ NAND3X1
X_20218_ gnd vdd _9897_ _9895_ _10197_ _10196_ AOI21X1
X_19658_ gnd vdd _9577_ _9583_ _9584_ _9390_ OAI21X1
X_19238_ gnd vdd _9122_ _9118_ _9123_ _9102_ AOI21X1
X_14793_ vdd _4250_ gnd breg_1_bF$buf2 areg_22_bF$buf1 NAND2X1
X_14373_ vdd _3790_ gnd _3791_ _3528_ NOR2X1
X_24051_ vdd b[9] gnd breg[9] clk_bF$buf1 DFFPOSX1
X_15998_ gnd vdd _5570_ _5569_ _5571_ _5568_ OAI21X1
X_15578_ vdd _5110_ gnd breg_11_bF$buf4 areg_14_bF$buf2 NAND2X1
X_15158_ gnd vdd _4613_ _4617_ _4650_ _4352_ AOI21X1
XSFILL59320x14050 vdd gnd FILL
X_20391_ gnd vdd _10385_ _10381_ _10387_ _10351_ OAI21X1
XSFILL3400x29050 vdd gnd FILL
X_21596_ gnd vdd _11705_ _11704_ _11707_ _11706_ OAI21X1
X_21176_ gnd vdd _11245_ _11247_ _11248_ _11225_ OAI21X1
X_17724_ gnd vdd _7461_ _7462_ _7463_ _7457_ OAI21X1
X_17304_ gnd vdd _6638_ _6644_ _7003_ _6646_ OAI21X1
X_18929_ _8756_ vdd gnd _8766_ _8762_ _8784_ NAND3X1
X_18509_ _8323_ vdd gnd _8283_ _8318_ _8324_ NAND3X1
XFILL74200x9050 vdd gnd FILL
X_13644_ vdd _2993_ gnd areg_3_bF$buf1 breg_15_bF$buf1 NAND2X1
X_13224_ _2534_ _2532_ vdd gnd _2533_ OR2X2
X_23742_ _2136_ _2143_ gnd vdd _2144_ XNOR2X1
X_23322_ vdd gnd _1671_ _1684_ _1687_ AND2X2
X_14849_ gnd vdd _4306_ _4307_ _4312_ _4305_ AOI21X1
X_14429_ _3849_ vdd gnd _3850_ _3851_ _3852_ NAND3X1
X_14009_ gnd vdd breg_4_bF$buf5 areg_15_bF$buf3 _3392_ breg_3_bF$buf4 
+ areg_16_bF$buf0
+ AOI22X1
X_18682_ _8490_ vdd gnd _8497_ _8502_ _8513_ NAND3X1
X_18262_ gnd vdd _8045_ _8053_ _8054_ _7657_ AOI21X1
X_20867_ vdd _10909_ gnd _10904_ _10908_ NAND2X1
X_20447_ gnd vdd _10201_ _10193_ _10448_ _10203_ OAI21X1
X_20027_ gnd vdd _9623_ _9628_ _9987_ _9975_ 
+ _9980_
+ AOI22X1
X_19887_ vdd _9834_ gnd _9835_ _9833_ NOR2X1
X_19467_ _9372_ vdd gnd _9371_ _9373_ _9374_ NAND3X1
X_19047_ gnd vdd _4434__bF$buf1 _6050__bF$buf1 _8913_ _8902_ OAI21X1
X_14182_ gnd vdd _3354_ _3311_ _3582_ _3349_ AOI21X1
XSFILL8680x31050 vdd gnd FILL
XSFILL69400x49050 vdd gnd FILL
X_12915_ vdd gnd _1467_ _1456_ INVX2
X_15387_ vdd _4902_ gnd _4900_ _4901_ NAND2X1
XSFILL13640x30050 vdd gnd FILL
XBUFX2_insert120 vdd gnd breg[16] breg_16_bF$buf0 BUFX2
XBUFX2_insert121 vdd gnd _3646_ _3646__bF$buf3 BUFX2
XBUFX2_insert122 vdd gnd _3646_ _3646__bF$buf2 BUFX2
XBUFX2_insert123 vdd gnd _3646_ _3646__bF$buf1 BUFX2
XBUFX2_insert124 vdd gnd _3646_ _3646__bF$buf0 BUFX2
X_17953_ vdd _7713_ gnd _7714_ _7278_ NOR2X1
X_17533_ gnd vdd _7241_ _7240_ _7253_ _7236_ AOI21X1
XBUFX2_insert125 vdd gnd breg[4] breg_4_bF$buf5 BUFX2
XBUFX2_insert126 vdd gnd breg[4] breg_4_bF$buf4 BUFX2
X_17113_ gnd vdd _6045_ _6398_ _6794_ _6401_ AOI21X1
XBUFX2_insert127 vdd gnd breg[4] breg_4_bF$buf3 BUFX2
XBUFX2_insert128 vdd gnd breg[4] breg_4_bF$buf2 BUFX2
XBUFX2_insert129 vdd gnd breg[4] breg_4_bF$buf1 BUFX2
XSFILL13560x37050 vdd gnd FILL
XSFILL74280x10050 vdd gnd FILL
X_18738_ gnd vdd _8123_ _8155_ _8574_ _8573_ AOI21X1
X_18318_ vdd gnd _8085_ _8105_ _8099_ _8114_ NOR3X1