*SPICE netlist created from verilog structural netlist module multiplierCarry by vlog2Spice (qflow)
*This file may contain array delimiters, not for use in simulation.

** Start of included library /usr/local/share/qflow/tech/osu018/osu018_stdcells.sp

.subckt AND2X1 Y B vdd gnd A
M0 a_2_6# A vdd vdd pfet w=2u l=0.2u
+ ad=0p pd=0u as=0p ps=0u 
M1 vdd B a_2_6# vdd pfet w=2u l=0.2u
+ ad=0p pd=0u as=0p ps=0u 
M2 Y a_2_6# vdd vdd pfet w=2u l=0.2u
+ ad=0p pd=0u as=0p ps=0u 
M3 a_9_6# A a_2_6# Gnd nfet w=2u l=0.2u
+ ad=0p pd=0u as=0p ps=0u 
M4 gnd B a_9_6# Gnd nfet w=2u l=0.2u
+ ad=0p pd=0u as=0p ps=0u 
M5 Y a_2_6# gnd Gnd nfet w=1u l=0.2u
+ ad=0p pd=0u as=0p ps=0u 
.ends AND2X1

.subckt AND2X2 vdd gnd A B Y
M0 a_2_6# A vdd vdd pfet w=2u l=0.2u
+ ad=0p pd=0u as=0p ps=0u 
M1 vdd B a_2_6# vdd pfet w=2u l=0.2u
+ ad=0p pd=0u as=0p ps=0u 
M2 Y a_2_6# vdd vdd pfet w=4u l=0.2u
+ ad=0p pd=0u as=0p ps=0u 
M3 a_9_6# A a_2_6# Gnd nfet w=2u l=0.2u
+ ad=0p pd=0u as=0p ps=0u 
M4 gnd B a_9_6# Gnd nfet w=2u l=0.2u
+ ad=0p pd=0u as=0p ps=0u 
M5 Y a_2_6# gnd Gnd nfet w=2u l=0.2u
+ ad=0p pd=0u as=0p ps=0u 
.ends AND2X2

.subckt AOI21X1 gnd vdd A B Y C
M0 vdd A a_2_54# vdd pfet w=4u l=0.2u
+ ad=0p pd=0u as=0p ps=0u 
M1 a_2_54# B vdd vdd pfet w=4u l=0.2u
+ ad=0p pd=0u as=0p ps=0u 
M2 Y C a_2_54# vdd pfet w=4u l=0.2u
+ ad=0p pd=0u as=0p ps=0u 
M3 a_12_6# A gnd Gnd nfet w=2u l=0.2u
+ ad=0p pd=0u as=0p ps=0u 
M4 Y B a_12_6# Gnd nfet w=2u l=0.2u
+ ad=0p pd=0u as=0p ps=0u 
M5 gnd C Y Gnd nfet w=1u l=0.2u
+ ad=0p pd=0u as=0p ps=0u 
.ends AOI21X1

.subckt AOI22X1 gnd vdd C D Y A B
M0 vdd A a_2_54# vdd pfet w=4u l=0.2u
+ ad=0p pd=0u as=0p ps=0u 
M1 a_2_54# B vdd vdd pfet w=4u l=0.2u
+ ad=0p pd=0u as=0p ps=0u 
M2 Y D a_2_54# vdd pfet w=4u l=0.2u
+ ad=0p pd=0u as=0p ps=0u 
M3 a_2_54# C Y vdd pfet w=4u l=0.2u
+ ad=0p pd=0u as=0p ps=0u 
M4 a_11_6# A gnd Gnd nfet w=2u l=0.2u
+ ad=0p pd=0u as=0p ps=0u 
M5 Y B a_11_6# Gnd nfet w=2u l=0.2u
+ ad=0p pd=0u as=0p ps=0u 
M6 a_28_6# D Y Gnd nfet w=2u l=0.2u
+ ad=0p pd=0u as=0p ps=0u 
M7 gnd C a_28_6# Gnd nfet w=2u l=0.2u
+ ad=0p pd=0u as=0p ps=0u 
.ends AOI22X1

.subckt BUFX2 vdd gnd A Y
M0 vdd A a_2_6# vdd pfet w=2u l=0.2u
+ ad=0p pd=0u as=0p ps=0u 
M1 Y a_2_6# vdd vdd pfet w=4u l=0.2u
+ ad=0p pd=0u as=0p ps=0u 
M2 gnd A a_2_6# Gnd nfet w=1u l=0.2u
+ ad=0p pd=0u as=0p ps=0u 
M3 Y a_2_6# gnd Gnd nfet w=2u l=0.2u
+ ad=0p pd=0u as=0p ps=0u 
.ends BUFX2

.subckt BUFX4 vdd gnd A Y
M0 vdd A a_2_6# vdd pfet w=3u l=0.2u
+ ad=0p pd=0u as=0p ps=0u 
M1 Y a_2_6# vdd vdd pfet w=4u l=0.2u
+ ad=0p pd=0u as=0p ps=0u 
M2 vdd a_2_6# Y vdd pfet w=4u l=0.2u
+ ad=0p pd=0u as=0p ps=0u 
M3 gnd A a_2_6# Gnd nfet w=1.5u l=0.2u
+ ad=0p pd=0u as=0p ps=0u 
M4 Y a_2_6# gnd Gnd nfet w=2u l=0.2u
+ ad=0p pd=0u as=0p ps=0u 
M5 gnd a_2_6# Y Gnd nfet w=2u l=0.2u
+ ad=0p pd=0u as=0p ps=0u 
.ends BUFX4

.subckt CLKBUF1 A vdd gnd Y
M0 a_9_6# A vdd vdd pfet w=4u l=0.2u
+ ad=0p pd=0u as=0p ps=0u 
M1 vdd A a_9_6# vdd pfet w=4u l=0.2u
+ ad=0p pd=0u as=0p ps=0u 
M2 a_25_6# a_9_6# vdd vdd pfet w=4u l=0.2u
+ ad=0p pd=0u as=0p ps=0u 
M3 vdd a_9_6# a_25_6# vdd pfet w=4u l=0.2u
+ ad=0p pd=0u as=0p ps=0u 
M4 a_41_6# a_25_6# vdd vdd pfet w=4u l=0.2u
+ ad=0p pd=0u as=0p ps=0u 
M5 vdd a_25_6# a_41_6# vdd pfet w=4u l=0.2u
+ ad=0p pd=0u as=0p ps=0u 
M6 Y a_41_6# vdd vdd pfet w=4u l=0.2u
+ ad=0p pd=0u as=0p ps=0u 
M7 vdd a_41_6# Y vdd pfet w=4u l=0.2u
+ ad=0p pd=0u as=0p ps=0u 
M8 a_9_6# A gnd Gnd nfet w=2u l=0.2u
+ ad=0p pd=0u as=0p ps=0u 
M9 gnd A a_9_6# Gnd nfet w=2u l=0.2u
+ ad=0p pd=0u as=0p ps=0u 
M10 a_25_6# a_9_6# gnd Gnd nfet w=2u l=0.2u
+ ad=0p pd=0u as=0p ps=0u 
M11 gnd a_9_6# a_25_6# Gnd nfet w=2u l=0.2u
+ ad=0p pd=0u as=0p ps=0u 
M12 a_41_6# a_25_6# gnd Gnd nfet w=2u l=0.2u
+ ad=0p pd=0u as=0p ps=0u 
M13 gnd a_25_6# a_41_6# Gnd nfet w=2u l=0.2u
+ ad=0p pd=0u as=0p ps=0u 
M14 Y a_41_6# gnd Gnd nfet w=2u l=0.2u
+ ad=0p pd=0u as=0p ps=0u 
M15 gnd a_41_6# Y Gnd nfet w=2u l=0.2u
+ ad=0p pd=0u as=0p ps=0u 
.ends CLKBUF1

.subckt CLKBUF2 vdd gnd A Y
M0 a_9_6# A vdd vdd pfet w=4u l=0.2u
+ ad=0p pd=0u as=0p ps=0u 
M1 vdd A a_9_6# vdd pfet w=4u l=0.2u
+ ad=0p pd=0u as=0p ps=0u 
M2 a_25_6# a_9_6# vdd vdd pfet w=4u l=0.2u
+ ad=0p pd=0u as=0p ps=0u 
M3 vdd a_9_6# a_25_6# vdd pfet w=4u l=0.2u
+ ad=0p pd=0u as=0p ps=0u 
M4 a_41_6# a_25_6# vdd vdd pfet w=4u l=0.2u
+ ad=0p pd=0u as=0p ps=0u 
M5 vdd a_25_6# a_41_6# vdd pfet w=4u l=0.2u
+ ad=0p pd=0u as=0p ps=0u 
M6 a_57_6# a_41_6# vdd vdd pfet w=4u l=0.2u
+ ad=0p pd=0u as=0p ps=0u 
M7 vdd a_41_6# a_57_6# vdd pfet w=4u l=0.2u
+ ad=0p pd=0u as=0p ps=0u 
M8 a_73_6# a_57_6# vdd vdd pfet w=4u l=0.2u
+ ad=0p pd=0u as=0p ps=0u 
M9 vdd a_57_6# a_73_6# vdd pfet w=4u l=0.2u
+ ad=0p pd=0u as=0p ps=0u 
M10 Y a_73_6# vdd vdd pfet w=4u l=0.2u
+ ad=0p pd=0u as=0p ps=0u 
M11 vdd a_73_6# Y vdd pfet w=4u l=0.2u
+ ad=0p pd=0u as=0p ps=0u 
M12 a_9_6# A gnd Gnd nfet w=2u l=0.2u
+ ad=0p pd=0u as=0p ps=0u 
M13 gnd A a_9_6# Gnd nfet w=2u l=0.2u
+ ad=0p pd=0u as=0p ps=0u 
M14 a_25_6# a_9_6# gnd Gnd nfet w=2u l=0.2u
+ ad=0p pd=0u as=0p ps=0u 
M15 gnd a_9_6# a_25_6# Gnd nfet w=2u l=0.2u
+ ad=0p pd=0u as=0p ps=0u 
M16 a_41_6# a_25_6# gnd Gnd nfet w=2u l=0.2u
+ ad=0p pd=0u as=0p ps=0u 
M17 gnd a_25_6# a_41_6# Gnd nfet w=2u l=0.2u
+ ad=0p pd=0u as=0p ps=0u 
M18 a_57_6# a_41_6# gnd Gnd nfet w=2u l=0.2u
+ ad=0p pd=0u as=0p ps=0u 
M19 gnd a_41_6# a_57_6# Gnd nfet w=2u l=0.2u
+ ad=0p pd=0u as=0p ps=0u 
M20 a_73_6# a_57_6# gnd Gnd nfet w=2u l=0.2u
+ ad=0p pd=0u as=0p ps=0u 
M21 gnd a_57_6# a_73_6# Gnd nfet w=2u l=0.2u
+ ad=0p pd=0u as=0p ps=0u 
M22 Y a_73_6# gnd Gnd nfet w=2u l=0.2u
+ ad=0p pd=0u as=0p ps=0u 
M23 gnd a_73_6# Y Gnd nfet w=2u l=0.2u
+ ad=0p pd=0u as=0p ps=0u 
.ends CLKBUF2

.subckt CLKBUF3 gnd vdd A Y
M0 a_9_6# A vdd vdd pfet w=4u l=0.2u
+ ad=0p pd=0u as=0p ps=0u 
M1 vdd A a_9_6# vdd pfet w=4u l=0.2u
+ ad=0p pd=0u as=0p ps=0u 
M2 a_25_6# a_9_6# vdd vdd pfet w=4u l=0.2u
+ ad=0p pd=0u as=0p ps=0u 
M3 vdd a_9_6# a_25_6# vdd pfet w=4u l=0.2u
+ ad=0p pd=0u as=0p ps=0u 
M4 a_41_6# a_25_6# vdd vdd pfet w=4u l=0.2u
+ ad=0p pd=0u as=0p ps=0u 
M5 vdd a_25_6# a_41_6# vdd pfet w=4u l=0.2u
+ ad=0p pd=0u as=0p ps=0u 
M6 a_57_6# a_41_6# vdd vdd pfet w=4u l=0.2u
+ ad=0p pd=0u as=0p ps=0u 
M7 vdd a_41_6# a_57_6# vdd pfet w=4u l=0.2u
+ ad=0p pd=0u as=0p ps=0u 
M8 a_73_6# a_57_6# vdd vdd pfet w=4u l=0.2u
+ ad=0p pd=0u as=0p ps=0u 
M9 vdd a_57_6# a_73_6# vdd pfet w=4u l=0.2u
+ ad=0p pd=0u as=0p ps=0u 
M10 a_89_6# a_73_6# vdd vdd pfet w=4u l=0.2u
+ ad=0p pd=0u as=0p ps=0u 
M11 vdd a_73_6# a_89_6# vdd pfet w=4u l=0.2u
+ ad=0p pd=0u as=0p ps=0u 
M12 a_105_6# a_89_6# vdd vdd pfet w=4u l=0.2u
+ ad=0p pd=0u as=0p ps=0u 
M13 vdd a_89_6# a_105_6# vdd pfet w=4u l=0.2u
+ ad=0p pd=0u as=0p ps=0u 
M14 Y a_105_6# vdd vdd pfet w=4u l=0.2u
+ ad=0p pd=0u as=0p ps=0u 
M15 vdd a_105_6# Y vdd pfet w=4u l=0.2u
+ ad=0p pd=0u as=0p ps=0u 
M16 a_9_6# A gnd Gnd nfet w=2u l=0.2u
+ ad=0p pd=0u as=0p ps=0u 
M17 gnd A a_9_6# Gnd nfet w=2u l=0.2u
+ ad=0p pd=0u as=0p ps=0u 
M18 a_25_6# a_9_6# gnd Gnd nfet w=2u l=0.2u
+ ad=0p pd=0u as=0p ps=0u 
M19 gnd a_9_6# a_25_6# Gnd nfet w=2u l=0.2u
+ ad=0p pd=0u as=0p ps=0u 
M20 a_41_6# a_25_6# gnd Gnd nfet w=2u l=0.2u
+ ad=0p pd=0u as=0p ps=0u 
M21 gnd a_25_6# a_41_6# Gnd nfet w=2u l=0.2u
+ ad=0p pd=0u as=0p ps=0u 
M22 a_57_6# a_41_6# gnd Gnd nfet w=2u l=0.2u
+ ad=0p pd=0u as=0p ps=0u 
M23 gnd a_41_6# a_57_6# Gnd nfet w=2u l=0.2u
+ ad=0p pd=0u as=0p ps=0u 
M24 a_73_6# a_57_6# gnd Gnd nfet w=2u l=0.2u
+ ad=0p pd=0u as=0p ps=0u 
M25 gnd a_57_6# a_73_6# Gnd nfet w=2u l=0.2u
+ ad=0p pd=0u as=0p ps=0u 
M26 a_89_6# a_73_6# gnd Gnd nfet w=2u l=0.2u
+ ad=0p pd=0u as=0p ps=0u 
M27 gnd a_73_6# a_89_6# Gnd nfet w=2u l=0.2u
+ ad=0p pd=0u as=0p ps=0u 
M28 a_105_6# a_89_6# gnd Gnd nfet w=2u l=0.2u
+ ad=0p pd=0u as=0p ps=0u 
M29 gnd a_89_6# a_105_6# Gnd nfet w=2u l=0.2u
+ ad=0p pd=0u as=0p ps=0u 
M30 Y a_105_6# gnd Gnd nfet w=2u l=0.2u
+ ad=0p pd=0u as=0p ps=0u 
M31 gnd a_105_6# Y Gnd nfet w=2u l=0.2u
+ ad=0p pd=0u as=0p ps=0u 
.ends CLKBUF3

.subckt DFFNEGX1 CLK vdd D gnd Q
M0 vdd CLK a_2_6# vdd pfet w=4u l=0.2u
+ ad=0p pd=0u as=0p ps=0u 
M1 a_17_74# D vdd vdd pfet w=2u l=0.2u
+ ad=0p pd=0u as=0p ps=0u 
M2 a_23_6# a_2_6# a_17_74# vdd pfet w=2u l=0.2u
+ ad=0p pd=0u as=0p ps=0u 
M3 a_31_74# CLK a_23_6# vdd pfet w=2u l=0.2u
+ ad=0p pd=0u as=0p ps=0u 
M4 vdd a_34_4# a_31_74# vdd pfet w=2u l=0.2u
+ ad=0p pd=0u as=0p ps=0u 
M5 a_34_4# a_23_6# vdd vdd pfet w=2u l=0.2u
+ ad=0p pd=0u as=0p ps=0u 
M6 a_61_74# a_34_4# vdd vdd pfet w=2u l=0.2u
+ ad=0p pd=0u as=0p ps=0u 
M7 a_66_6# CLK a_61_74# vdd pfet w=2u l=0.2u
+ ad=0p pd=0u as=0p ps=0u 
M8 a_76_84# a_2_6# a_66_6# vdd pfet w=1u l=0.2u
+ ad=0p pd=0u as=0p ps=0u 
M9 vdd Q a_76_84# vdd pfet w=1u l=0.2u
+ ad=0p pd=0u as=0p ps=0u 
M10 gnd CLK a_2_6# Gnd nfet w=2u l=0.2u
+ ad=0p pd=0u as=0p ps=0u 
M11 Q a_66_6# vdd vdd pfet w=4u l=0.2u
+ ad=0p pd=0u as=0p ps=0u 
M12 a_17_6# D gnd Gnd nfet w=1u l=0.2u
+ ad=0p pd=0u as=0p ps=0u 
M13 a_23_6# CLK a_17_6# Gnd nfet w=1u l=0.2u
+ ad=0p pd=0u as=0p ps=0u 
M14 a_31_6# a_2_6# a_23_6# Gnd nfet w=1u l=0.2u
+ ad=0p pd=0u as=0p ps=0u 
M15 gnd a_34_4# a_31_6# Gnd nfet w=1u l=0.2u
+ ad=0p pd=0u as=0p ps=0u 
M16 a_34_4# a_23_6# gnd Gnd nfet w=1u l=0.2u
+ ad=0p pd=0u as=0p ps=0u 
M17 a_61_6# a_34_4# gnd Gnd nfet w=1u l=0.2u
+ ad=0p pd=0u as=0p ps=0u 
M18 a_66_6# a_2_6# a_61_6# Gnd nfet w=1u l=0.2u
+ ad=0p pd=0u as=0p ps=0u 
M19 a_76_6# CLK a_66_6# Gnd nfet w=1u l=0.2u
+ ad=0p pd=0u as=0p ps=0u 
M20 gnd Q a_76_6# Gnd nfet w=1u l=0.2u
+ ad=0p pd=0u as=0p ps=0u 
M21 Q a_66_6# gnd Gnd nfet w=2u l=0.2u
+ ad=0p pd=0u as=0p ps=0u 
.ends DFFNEGX1

.subckt DFFPOSX1 vdd D gnd Q CLK
M0 vdd CLK a_2_6# vdd pfet w=4u l=0.2u
+ ad=0p pd=0u as=0p ps=0u 
M1 a_17_74# D vdd vdd pfet w=2u l=0.2u
+ ad=0p pd=0u as=0p ps=0u 
M2 a_22_6# CLK a_17_74# vdd pfet w=2u l=0.2u
+ ad=0p pd=0u as=0p ps=0u 
M3 a_31_74# a_2_6# a_22_6# vdd pfet w=2u l=0.2u
+ ad=0p pd=0u as=0p ps=0u 
M4 vdd a_34_4# a_31_74# vdd pfet w=2u l=0.2u
+ ad=0p pd=0u as=0p ps=0u 
M5 a_34_4# a_22_6# vdd vdd pfet w=2u l=0.2u
+ ad=0p pd=0u as=0p ps=0u 
M6 a_61_74# a_34_4# vdd vdd pfet w=2u l=0.2u
+ ad=0p pd=0u as=0p ps=0u 
M7 a_66_6# a_2_6# a_61_74# vdd pfet w=2u l=0.2u
+ ad=0p pd=0u as=0p ps=0u 
M8 a_76_84# CLK a_66_6# vdd pfet w=1u l=0.2u
+ ad=0p pd=0u as=0p ps=0u 
M9 vdd Q a_76_84# vdd pfet w=1u l=0.2u
+ ad=0p pd=0u as=0p ps=0u 
M10 gnd CLK a_2_6# Gnd nfet w=2u l=0.2u
+ ad=0p pd=0u as=0p ps=0u 
M11 Q a_66_6# vdd vdd pfet w=4u l=0.2u
+ ad=0p pd=0u as=0p ps=0u 
M12 a_17_6# D gnd Gnd nfet w=1u l=0.2u
+ ad=0p pd=0u as=0p ps=0u 
M13 a_22_6# a_2_6# a_17_6# Gnd nfet w=1u l=0.2u
+ ad=0p pd=0u as=0p ps=0u 
M14 a_31_6# CLK a_22_6# Gnd nfet w=1u l=0.2u
+ ad=0p pd=0u as=0p ps=0u 
M15 gnd a_34_4# a_31_6# Gnd nfet w=1u l=0.2u
+ ad=0p pd=0u as=0p ps=0u 
M16 a_34_4# a_22_6# gnd Gnd nfet w=1u l=0.2u
+ ad=0p pd=0u as=0p ps=0u 
M17 a_61_6# a_34_4# gnd Gnd nfet w=1u l=0.2u
+ ad=0p pd=0u as=0p ps=0u 
M18 a_66_6# CLK a_61_6# Gnd nfet w=1u l=0.2u
+ ad=0p pd=0u as=0p ps=0u 
M19 a_76_6# a_2_6# a_66_6# Gnd nfet w=1u l=0.2u
+ ad=0p pd=0u as=0p ps=0u 
M20 gnd Q a_76_6# Gnd nfet w=1u l=0.2u
+ ad=0p pd=0u as=0p ps=0u 
M21 Q a_66_6# gnd Gnd nfet w=2u l=0.2u
+ ad=0p pd=0u as=0p ps=0u 
.ends DFFPOSX1

.subckt DFFSR gnd vdd D S R Q CLK
M0 a_2_6# R vdd vdd pfet w=2u l=0.2u
+ ad=0p pd=0u as=0p ps=0u 
M1 vdd a_10_61# a_2_6# vdd pfet w=2u l=0.2u
+ ad=0p pd=0u as=0p ps=0u 
M2 a_10_61# a_23_27# vdd vdd pfet w=2u l=0.2u
+ ad=0p pd=0u as=0p ps=0u 
M3 vdd S a_10_61# vdd pfet w=2u l=0.2u
+ ad=0p pd=0u as=0p ps=0u 
M4 a_23_27# a_47_71# a_2_6# vdd pfet w=1u l=0.2u
+ ad=0p pd=0u as=0p ps=0u 
M5 a_57_6# a_47_4# a_23_27# vdd pfet w=1u l=0.2u
+ ad=0p pd=0u as=0p ps=0u 
M6 vdd D a_57_6# vdd pfet w=2u l=0.2u
+ ad=0p pd=0u as=0p ps=0u 
M7 vdd a_47_71# a_47_4# vdd pfet w=2u l=0.2u
+ ad=0p pd=0u as=0p ps=0u 
M8 a_47_71# CLK vdd vdd pfet w=2u l=0.2u
+ ad=0p pd=0u as=0p ps=0u 
M9 a_105_6# a_47_71# a_10_61# vdd pfet w=1u l=0.2u
+ ad=0p pd=0u as=0p ps=0u 
M10 a_113_6# a_47_4# a_105_6# vdd pfet w=1u l=0.2u
+ ad=0p pd=0u as=0p ps=0u 
M11 a_122_6# a_105_6# vdd vdd pfet w=2u l=0.2u
+ ad=0p pd=0u as=0p ps=0u 
M12 vdd R a_122_6# vdd pfet w=2u l=0.2u
+ ad=0p pd=0u as=0p ps=0u 
M13 a_113_6# a_122_6# vdd vdd pfet w=2u l=0.2u
+ ad=0p pd=0u as=0p ps=0u 
M14 vdd S a_113_6# vdd pfet w=2u l=0.2u
+ ad=0p pd=0u as=0p ps=0u 
M15 vdd a_122_6# Q vdd pfet w=2u l=0.2u
+ ad=0p pd=0u as=0p ps=0u 
M16 a_10_6# R a_2_6# Gnd nfet w=2u l=0.2u
+ ad=0p pd=0u as=0p ps=0u 
M17 gnd a_10_61# a_10_6# Gnd nfet w=2u l=0.2u
+ ad=0p pd=0u as=0p ps=0u 
M18 a_26_6# a_23_27# gnd Gnd nfet w=2u l=0.2u
+ ad=0p pd=0u as=0p ps=0u 
M19 a_10_61# S a_26_6# Gnd nfet w=2u l=0.2u
+ ad=0p pd=0u as=0p ps=0u 
M20 a_23_27# a_47_4# a_2_6# Gnd nfet w=1u l=0.2u
+ ad=0p pd=0u as=0p ps=0u 
M21 a_57_6# a_47_71# a_23_27# Gnd nfet w=1u l=0.2u
+ ad=0p pd=0u as=0p ps=0u 
M22 gnd D a_57_6# Gnd nfet w=1u l=0.2u
+ ad=0p pd=0u as=0p ps=0u 
M23 gnd a_47_71# a_47_4# Gnd nfet w=1u l=0.2u
+ ad=0p pd=0u as=0p ps=0u 
M24 a_47_71# CLK gnd Gnd nfet w=1u l=0.2u
+ ad=0p pd=0u as=0p ps=0u 
M25 a_105_6# a_47_4# a_10_61# Gnd nfet w=1u l=0.2u
+ ad=0p pd=0u as=0p ps=0u 
M26 a_113_6# a_47_71# a_105_6# Gnd nfet w=1u l=0.2u
+ ad=0p pd=0u as=0p ps=0u 
M27 a_130_6# a_105_6# a_122_6# Gnd nfet w=2u l=0.2u
+ ad=0p pd=0u as=0p ps=0u 
M28 gnd R a_130_6# Gnd nfet w=2u l=0.2u
+ ad=0p pd=0u as=0p ps=0u 
M29 a_146_6# a_122_6# gnd Gnd nfet w=2u l=0.2u
+ ad=0p pd=0u as=0p ps=0u 
M30 a_113_6# S a_146_6# Gnd nfet w=2u l=0.2u
+ ad=0p pd=0u as=0p ps=0u 
M31 gnd a_122_6# Q Gnd nfet w=1u l=0.2u
+ ad=0p pd=0u as=0p ps=0u 
.ends DFFSR

.subckt FAX1 gnd vdd A B C YC YS
M0 vdd A a_2_54# vdd pfet w=4u l=0.2u
+ ad=0p pd=0u as=0p ps=0u 
M1 a_2_54# B vdd vdd pfet w=4u l=0.2u
+ ad=0p pd=0u as=0p ps=0u 
M2 a_25_6# C a_2_54# vdd pfet w=4u l=0.2u
+ ad=0p pd=0u as=0p ps=0u 
M3 a_33_54# B a_25_6# vdd pfet w=4u l=0.2u
+ ad=0p pd=0u as=0p ps=0u 
M4 vdd A a_33_54# vdd pfet w=4u l=0.2u
+ ad=0p pd=0u as=0p ps=0u 
M5 a_46_54# A vdd vdd pfet w=4u l=0.2u
+ ad=0p pd=0u as=0p ps=0u 
M6 vdd B a_46_54# vdd pfet w=3.6u l=0.2u
+ ad=0p pd=0u as=0p ps=0u 
M7 a_46_54# C vdd vdd pfet w=3.6u l=0.2u
+ ad=0p pd=0u as=0p ps=0u 
M8 a_70_6# a_25_6# a_46_54# vdd pfet w=3.6u l=0.2u
+ ad=0p pd=0u as=0p ps=0u 
M9 a_79_46# C a_70_6# vdd pfet w=4.8u l=0.2u
+ ad=0p pd=0u as=0p ps=0u 
M10 a_84_46# B a_79_46# vdd pfet w=4.8u l=0.2u
+ ad=0p pd=0u as=0p ps=0u 
M11 vdd A a_84_46# vdd pfet w=4.8u l=0.2u
+ ad=0p pd=0u as=0p ps=0u 
M12 YS a_70_6# vdd vdd pfet w=2u l=0.2u
+ ad=0p pd=0u as=0p ps=0u 
M13 YC a_25_6# vdd vdd pfet w=2u l=0.2u
+ ad=0p pd=0u as=0p ps=0u 
M14 gnd A a_2_6# Gnd nfet w=2u l=0.2u
+ ad=0p pd=0u as=0p ps=0u 
M15 a_2_6# B gnd Gnd nfet w=2u l=0.2u
+ ad=0p pd=0u as=0p ps=0u 
M16 a_25_6# C a_2_6# Gnd nfet w=2u l=0.2u
+ ad=0p pd=0u as=0p ps=0u 
M17 a_33_6# B a_25_6# Gnd nfet w=2u l=0.2u
+ ad=0p pd=0u as=0p ps=0u 
M18 gnd A a_33_6# Gnd nfet w=2u l=0.2u
+ ad=0p pd=0u as=0p ps=0u 
M19 a_46_6# A gnd Gnd nfet w=2u l=0.2u
+ ad=0p pd=0u as=0p ps=0u 
M20 gnd B a_46_6# Gnd nfet w=2u l=0.2u
+ ad=0p pd=0u as=0p ps=0u 
M21 a_46_6# C gnd Gnd nfet w=2u l=0.2u
+ ad=0p pd=0u as=0p ps=0u 
M22 a_70_6# a_25_6# a_46_6# Gnd nfet w=2u l=0.2u
+ ad=0p pd=0u as=0p ps=0u 
M23 a_79_6# C a_70_6# Gnd nfet w=2u l=0.2u
+ ad=0p pd=0u as=0p ps=0u 
M24 a_84_6# B a_79_6# Gnd nfet w=2u l=0.2u
+ ad=0p pd=0u as=0p ps=0u 
M25 gnd A a_84_6# Gnd nfet w=2u l=0.2u
+ ad=0p pd=0u as=0p ps=0u 
M26 YS a_70_6# gnd Gnd nfet w=1u l=0.2u
+ ad=0p pd=0u as=0p ps=0u 
M27 YC a_25_6# gnd Gnd nfet w=1u l=0.2u
+ ad=0p pd=0u as=0p ps=0u 
.ends FAX1

.subckt FILL vdd gnd
.ends FILL

.subckt HAX1 vdd gnd YC A B YS
M0 vdd A a_2_74# vdd pfet w=2u l=0.2u
+ ad=0p pd=0u as=0p ps=0u 
M1 a_2_74# B vdd vdd pfet w=2u l=0.2u
+ ad=0p pd=0u as=0p ps=0u 
M2 vdd a_2_74# YC vdd pfet w=2u l=0.2u
+ ad=0p pd=0u as=0p ps=0u 
M3 a_41_74# a_2_74# vdd vdd pfet w=2u l=0.2u
+ ad=0p pd=0u as=0p ps=0u 
M4 a_49_54# B a_41_74# vdd pfet w=4u l=0.2u
+ ad=0p pd=0u as=0p ps=0u 
M5 vdd A a_49_54# vdd pfet w=4u l=0.2u
+ ad=0p pd=0u as=0p ps=0u 
M6 YS a_41_74# vdd vdd pfet w=2u l=0.2u
+ ad=0p pd=0u as=0p ps=0u 
M7 a_9_6# A gnd Gnd nfet w=2u l=0.2u
+ ad=0p pd=0u as=0p ps=0u 
M8 a_2_74# B a_9_6# Gnd nfet w=2u l=0.2u
+ ad=0p pd=0u as=0p ps=0u 
M9 gnd a_2_74# YC Gnd nfet w=1u l=0.2u
+ ad=0p pd=0u as=0p ps=0u 
M10 a_38_6# a_2_74# gnd Gnd nfet w=2u l=0.2u
+ ad=0p pd=0u as=0p ps=0u 
M11 a_41_74# B a_38_6# Gnd nfet w=2u l=0.2u
+ ad=0p pd=0u as=0p ps=0u 
M12 a_38_6# A a_41_74# Gnd nfet w=2u l=0.2u
+ ad=0p pd=0u as=0p ps=0u 
M13 YS a_41_74# gnd Gnd nfet w=1u l=0.2u
+ ad=0p pd=0u as=0p ps=0u 
.ends HAX1

.subckt INVX1 A Y vdd gnd
M0 Y A vdd vdd pfet w=2u l=0.2u
+ ad=0p pd=0u as=0p ps=0u 
M1 Y A gnd Gnd nfet w=1u l=0.2u
+ ad=0p pd=0u as=0p ps=0u 
.ends INVX1

.subckt INVX2 vdd gnd Y A
M0 Y A vdd vdd pfet w=4u l=0.2u
+ ad=0p pd=0u as=0p ps=0u 
M1 Y A gnd Gnd nfet w=2u l=0.2u
+ ad=0p pd=0u as=0p ps=0u 
.ends INVX2

.subckt INVX4 vdd gnd Y A
M0 Y A vdd vdd pfet w=4u l=0.2u
+ ad=0p pd=0u as=0p ps=0u 
M1 vdd A Y vdd pfet w=4u l=0.2u
+ ad=0p pd=0u as=0p ps=0u 
M2 Y A gnd Gnd nfet w=2u l=0.2u
+ ad=0p pd=0u as=0p ps=0u 
M3 gnd A Y Gnd nfet w=2u l=0.2u
+ ad=0p pd=0u as=0p ps=0u 
.ends INVX4

.subckt INVX8 vdd gnd A Y
M0 Y A vdd vdd pfet w=4u l=0.2u
+ ad=0p pd=0u as=0p ps=0u 
M1 vdd A Y vdd pfet w=4u l=0.2u
+ ad=0p pd=0u as=0p ps=0u 
M2 Y A vdd vdd pfet w=4u l=0.2u
+ ad=0p pd=0u as=0p ps=0u 
M3 vdd A Y vdd pfet w=4u l=0.2u
+ ad=0p pd=0u as=0p ps=0u 
M4 Y A gnd Gnd nfet w=2u l=0.2u
+ ad=0p pd=0u as=0p ps=0u 
M5 gnd A Y Gnd nfet w=2u l=0.2u
+ ad=0p pd=0u as=0p ps=0u 
M6 Y A gnd Gnd nfet w=2u l=0.2u
+ ad=0p pd=0u as=0p ps=0u 
M7 gnd A Y Gnd nfet w=2u l=0.2u
+ ad=0p pd=0u as=0p ps=0u 
.ends INVX8

.subckt LATCH D Q gnd vdd CLK
M0 vdd CLK a_2_6# vdd pfet w=4u l=0.2u
+ ad=0p pd=0u as=0p ps=0u 
M1 a_18_74# D vdd vdd pfet w=2u l=0.2u
+ ad=0p pd=0u as=0p ps=0u 
M2 a_23_6# a_2_6# a_18_74# vdd pfet w=2u l=0.2u
+ ad=0p pd=0u as=0p ps=0u 
M3 a_35_84# CLK a_23_6# vdd pfet w=1u l=0.2u
+ ad=0p pd=0u as=0p ps=0u 
M4 vdd Q a_35_84# vdd pfet w=1u l=0.2u
+ ad=0p pd=0u as=0p ps=0u 
M5 gnd CLK a_2_6# Gnd nfet w=2u l=0.2u
+ ad=0p pd=0u as=0p ps=0u 
M6 Q a_23_6# vdd vdd pfet w=4u l=0.2u
+ ad=0p pd=0u as=0p ps=0u 
M7 a_18_6# D gnd Gnd nfet w=1u l=0.2u
+ ad=0p pd=0u as=0p ps=0u 
M8 a_23_6# CLK a_18_6# Gnd nfet w=1u l=0.2u
+ ad=0p pd=0u as=0p ps=0u 
M9 a_35_6# a_2_6# a_23_6# Gnd nfet w=1u l=0.2u
+ ad=0p pd=0u as=0p ps=0u 
M10 gnd Q a_35_6# Gnd nfet w=1u l=0.2u
+ ad=0p pd=0u as=0p ps=0u 
M11 Q a_23_6# gnd Gnd nfet w=2u l=0.2u
+ ad=0p pd=0u as=0p ps=0u 
.ends LATCH

.subckt MUX2X1 S vdd gnd Y A B
M0 vdd S a_2_10# vdd pfet w=2u l=0.2u
+ ad=0p pd=0u as=0p ps=0u 
M1 a_17_50# B vdd vdd pfet w=4u l=0.2u
+ ad=0p pd=0u as=0p ps=0u 
M2 Y S a_17_50# vdd pfet w=4u l=0.2u
+ ad=0p pd=0u as=0p ps=0u 
M3 a_30_54# a_2_10# Y vdd pfet w=4u l=0.2u
+ ad=0p pd=0u as=0p ps=0u 
M4 vdd A a_30_54# vdd pfet w=4u l=0.2u
+ ad=0p pd=0u as=0p ps=0u 
M5 gnd S a_2_10# Gnd nfet w=1u l=0.2u
+ ad=0p pd=0u as=0p ps=0u 
M6 a_17_10# B gnd Gnd nfet w=2u l=0.2u
+ ad=0p pd=0u as=0p ps=0u 
M7 Y a_2_10# a_17_10# Gnd nfet w=2u l=0.2u
+ ad=0p pd=0u as=0p ps=0u 
M8 a_30_10# S Y Gnd nfet w=2u l=0.2u
+ ad=0p pd=0u as=0p ps=0u 
M9 gnd A a_30_10# Gnd nfet w=2u l=0.2u
+ ad=0p pd=0u as=0p ps=0u 
.ends MUX2X1

.subckt NAND2X1 vdd Y gnd A B
M0 Y A vdd vdd pfet w=2u l=0.2u
+ ad=0p pd=0u as=0p ps=0u 
M1 vdd B Y vdd pfet w=2u l=0.2u
+ ad=0p pd=0u as=0p ps=0u 
M2 a_9_6# A gnd Gnd nfet w=2u l=0.2u
+ ad=0p pd=0u as=0p ps=0u 
M3 Y B a_9_6# Gnd nfet w=2u l=0.2u
+ ad=0p pd=0u as=0p ps=0u 
.ends NAND2X1

.subckt NAND3X1 B vdd gnd A C Y
M0 Y A vdd vdd pfet w=2u l=0.2u
+ ad=0p pd=0u as=0p ps=0u 
M1 vdd B Y vdd pfet w=2u l=0.2u
+ ad=0p pd=0u as=0p ps=0u 
M2 Y C vdd vdd pfet w=2u l=0.2u
+ ad=0p pd=0u as=0p ps=0u 
M3 a_9_6# A gnd Gnd nfet w=3u l=0.2u
+ ad=0p pd=0u as=0p ps=0u 
M4 a_14_6# B a_9_6# Gnd nfet w=3u l=0.2u
+ ad=0p pd=0u as=0p ps=0u 
M5 Y C a_14_6# Gnd nfet w=3u l=0.2u
+ ad=0p pd=0u as=0p ps=0u 
.ends NAND3X1

.subckt NOR2X1 vdd B gnd Y A
M0 a_9_54# A vdd vdd pfet w=4u l=0.2u
+ ad=0p pd=0u as=0p ps=0u 
M1 Y B a_9_54# vdd pfet w=4u l=0.2u
+ ad=0p pd=0u as=0p ps=0u 
M2 Y A gnd Gnd nfet w=1u l=0.2u
+ ad=0p pd=0u as=0p ps=0u 
M3 gnd B Y Gnd nfet w=1u l=0.2u
+ ad=0p pd=0u as=0p ps=0u 
.ends NOR2X1

.subckt NOR3X1 vdd gnd B C A Y
M0 vdd A a_2_64# vdd pfet w=3u l=0.2u
+ ad=0p pd=0u as=0p ps=0u 
M1 a_2_64# A vdd vdd pfet w=3u l=0.2u
+ ad=0p pd=0u as=0p ps=0u 
M2 a_25_64# B a_2_64# vdd pfet w=3u l=0.2u
+ ad=0p pd=0u as=0p ps=0u 
M3 a_2_64# B a_25_64# vdd pfet w=3u l=0.2u
+ ad=0p pd=0u as=0p ps=0u 
M4 Y C a_25_64# vdd pfet w=3u l=0.2u
+ ad=0p pd=0u as=0p ps=0u 
M5 a_25_64# C Y vdd pfet w=3u l=0.2u
+ ad=0p pd=0u as=0p ps=0u 
M6 Y A gnd Gnd nfet w=1u l=0.2u
+ ad=0p pd=0u as=0p ps=0u 
M7 gnd B Y Gnd nfet w=1u l=0.2u
+ ad=0p pd=0u as=0p ps=0u 
M8 Y C gnd Gnd nfet w=1u l=0.2u
+ ad=0p pd=0u as=0p ps=0u 
.ends NOR3X1

.subckt OAI21X1 gnd vdd A B Y C
M0 a_9_54# A vdd vdd pfet w=4u l=0.2u
+ ad=0p pd=0u as=0p ps=0u 
M1 Y B a_9_54# vdd pfet w=4u l=0.2u
+ ad=0p pd=0u as=0p ps=0u 
M2 vdd C Y vdd pfet w=2u l=0.2u
+ ad=0p pd=0u as=0p ps=0u 
M3 gnd A a_2_6# Gnd nfet w=2u l=0.2u
+ ad=0p pd=0u as=0p ps=0u 
M4 a_2_6# B gnd Gnd nfet w=2u l=0.2u
+ ad=0p pd=0u as=0p ps=0u 
M5 Y C a_2_6# Gnd nfet w=2u l=0.2u
+ ad=0p pd=0u as=0p ps=0u 
.ends OAI21X1

.subckt OAI22X1 gnd vdd D C A B Y
M0 a_9_54# A vdd vdd pfet w=4u l=0.2u
+ ad=0p pd=0u as=0p ps=0u 
M1 Y B a_9_54# vdd pfet w=4u l=0.2u
+ ad=0p pd=0u as=0p ps=0u 
M2 a_28_54# D Y vdd pfet w=4u l=0.2u
+ ad=0p pd=0u as=0p ps=0u 
M3 vdd C a_28_54# vdd pfet w=4u l=0.2u
+ ad=0p pd=0u as=0p ps=0u 
M4 gnd A a_2_6# Gnd nfet w=2u l=0.2u
+ ad=0p pd=0u as=0p ps=0u 
M5 a_2_6# B gnd Gnd nfet w=2u l=0.2u
+ ad=0p pd=0u as=0p ps=0u 
M6 Y D a_2_6# Gnd nfet w=2u l=0.2u
+ ad=0p pd=0u as=0p ps=0u 
M7 a_2_6# C Y Gnd nfet w=2u l=0.2u
+ ad=0p pd=0u as=0p ps=0u 
.ends OAI22X1

.subckt OR2X1 Y B vdd gnd A
M0 a_9_54# A a_2_54# vdd pfet w=4u l=0.2u
+ ad=0p pd=0u as=0p ps=0u 
M1 vdd B a_9_54# vdd pfet w=4u l=0.2u
+ ad=0p pd=0u as=0p ps=0u 
M2 Y a_2_54# vdd vdd pfet w=2u l=0.2u
+ ad=0p pd=0u as=0p ps=0u 
M3 a_2_54# A gnd Gnd nfet w=1u l=0.2u
+ ad=0p pd=0u as=0p ps=0u 
M4 gnd B a_2_54# Gnd nfet w=1u l=0.2u
+ ad=0p pd=0u as=0p ps=0u 
M5 Y a_2_54# gnd Gnd nfet w=1u l=0.2u
+ ad=0p pd=0u as=0p ps=0u 
.ends OR2X1

.subckt OR2X2 Y B vdd gnd A
M0 a_9_54# A a_2_54# vdd pfet w=4u l=0.2u
+ ad=0p pd=0u as=0p ps=0u 
M1 vdd B a_9_54# vdd pfet w=4u l=0.2u
+ ad=0p pd=0u as=0p ps=0u 
M2 Y a_2_54# vdd vdd pfet w=4u l=0.2u
+ ad=0p pd=0u as=0p ps=0u 
M3 a_2_54# A gnd Gnd nfet w=1u l=0.2u
+ ad=0p pd=0u as=0p ps=0u 
M4 gnd B a_2_54# Gnd nfet w=1u l=0.2u
+ ad=0p pd=0u as=0p ps=0u 
M5 Y a_2_54# gnd Gnd nfet w=2u l=0.2u
+ ad=0p pd=0u as=0p ps=0u 
.ends OR2X2

.subckt TBUFX1 vdd gnd EN A Y
M0 a_9_6# EN vdd vdd pfet w=2u l=0.2u
+ ad=0p pd=0u as=0p ps=0u 
M1 a_26_54# a_9_6# Y vdd pfet w=4u l=0.2u
+ ad=0p pd=0u as=0p ps=0u 
M2 vdd A a_26_54# vdd pfet w=4u l=0.2u
+ ad=0p pd=0u as=0p ps=0u 
M3 a_9_6# EN gnd Gnd nfet w=1u l=0.2u
+ ad=0p pd=0u as=0p ps=0u 
M4 a_26_6# EN Y Gnd nfet w=2u l=0.2u
+ ad=0p pd=0u as=0p ps=0u 
M5 gnd A a_26_6# Gnd nfet w=2u l=0.2u
+ ad=0p pd=0u as=0p ps=0u 
.ends TBUFX1

.subckt TBUFX2 vdd gnd A EN Y
M0 a_9_6# EN vdd vdd pfet w=4u l=0.2u
+ ad=0p pd=0u as=0p ps=0u 
M1 Y a_9_6# a_18_54# vdd pfet w=4u l=0.2u
+ ad=0p pd=0u as=0p ps=0u 
M2 a_18_54# a_9_6# Y vdd pfet w=4u l=0.2u
+ ad=0p pd=0u as=0p ps=0u 
M3 vdd A a_18_54# vdd pfet w=4u l=0.2u
+ ad=0p pd=0u as=0p ps=0u 
M4 a_18_54# A vdd vdd pfet w=4u l=0.2u
+ ad=0p pd=0u as=0p ps=0u 
M5 a_9_6# EN gnd Gnd nfet w=2u l=0.2u
+ ad=0p pd=0u as=0p ps=0u 
M6 Y EN a_18_6# Gnd nfet w=2u l=0.2u
+ ad=0p pd=0u as=0p ps=0u 
M7 a_18_6# EN Y Gnd nfet w=2u l=0.2u
+ ad=0p pd=0u as=0p ps=0u 
M8 gnd A a_18_6# Gnd nfet w=2u l=0.2u
+ ad=0p pd=0u as=0p ps=0u 
M9 a_18_6# A gnd Gnd nfet w=2u l=0.2u
+ ad=0p pd=0u as=0p ps=0u 
.ends TBUFX2

.subckt XNOR2X1 A B gnd vdd Y
M0 vdd A a_2_6# vdd pfet w=4u l=0.2u
+ ad=0p pd=0u as=0p ps=0u 
M1 a_18_54# a_12_41# vdd vdd pfet w=4u l=0.2u
+ ad=0p pd=0u as=0p ps=0u 
M2 Y a_2_6# a_18_54# vdd pfet w=4u l=0.2u
+ ad=0p pd=0u as=0p ps=0u 
M3 a_35_54# A Y vdd pfet w=4u l=0.2u
+ ad=0p pd=0u as=0p ps=0u 
M4 vdd B a_35_54# vdd pfet w=4u l=0.2u
+ ad=0p pd=0u as=0p ps=0u 
M5 a_12_41# B vdd vdd pfet w=4u l=0.2u
+ ad=0p pd=0u as=0p ps=0u 
M6 gnd A a_2_6# Gnd nfet w=2u l=0.2u
+ ad=0p pd=0u as=0p ps=0u 
M7 a_18_6# a_12_41# gnd Gnd nfet w=2u l=0.2u
+ ad=0p pd=0u as=0p ps=0u 
M8 Y A a_18_6# Gnd nfet w=2u l=0.2u
+ ad=0p pd=0u as=0p ps=0u 
M9 a_35_6# a_2_6# Y Gnd nfet w=2u l=0.2u
+ ad=0p pd=0u as=0p ps=0u 
M10 gnd B a_35_6# Gnd nfet w=2u l=0.2u
+ ad=0p pd=0u as=0p ps=0u 
M11 a_12_41# B gnd Gnd nfet w=2u l=0.2u
+ ad=0p pd=0u as=0p ps=0u 
.ends XNOR2X1

.subckt XOR2X1 Y vdd B A gnd
M0 vdd A a_2_6# vdd pfet w=4u l=0.2u
+ ad=0p pd=0u as=0p ps=0u 
M1 a_18_54# a_13_43# vdd vdd pfet w=4u l=0.2u
+ ad=0p pd=0u as=0p ps=0u 
M2 Y A a_18_54# vdd pfet w=4u l=0.2u
+ ad=0p pd=0u as=0p ps=0u 
M3 a_35_54# a_2_6# Y vdd pfet w=4u l=0.2u
+ ad=0p pd=0u as=0p ps=0u 
M4 vdd B a_35_54# vdd pfet w=4u l=0.2u
+ ad=0p pd=0u as=0p ps=0u 
M5 a_13_43# B vdd vdd pfet w=4u l=0.2u
+ ad=0p pd=0u as=0p ps=0u 
M6 gnd A a_2_6# Gnd nfet w=2u l=0.2u
+ ad=0p pd=0u as=0p ps=0u 
M7 a_18_6# a_13_43# gnd Gnd nfet w=2u l=0.2u
+ ad=0p pd=0u as=0p ps=0u 
M8 Y a_2_6# a_18_6# Gnd nfet w=2u l=0.2u
+ ad=0p pd=0u as=0p ps=0u 
M9 a_35_6# A Y Gnd nfet w=2u l=0.2u
+ ad=0p pd=0u as=0p ps=0u 
M10 gnd B a_35_6# Gnd nfet w=2u l=0.2u
+ ad=0p pd=0u as=0p ps=0u 
M11 a_13_43# B gnd Gnd nfet w=2u l=0.2u
+ ad=0p pd=0u as=0p ps=0u 
.ends XOR2X1

** End of included library /usr/local/share/qflow/tech/osu018/osu018_stdcells.sp

.subckt multiplierCarry vdd gnd a[0] a[1] a[2] a[3] a[4]
+ a[5] a[6] a[7] b[0] b[1] b[2] b[3] b[4]
+ b[5] b[6] b[7] clk y[0] y[1] y[2] y[3]
+ y[4] y[5] y[6] y[7] y[8] y[9] y[10] y[11]
+ y[12] y[13] y[14] y[15] 

X_588_ _512_ vdd gnd _384_ _490_ _520_ NAND3X1
XSFILL13960x11050 vdd gnd FILL
X_800_ _178_ vdd gnd _127_ _181_ _182_ NAND3X1
X_1066_ vdd _457_ gnd _429_ _428_ NAND2X1
XSFILL9080x11050 vdd gnd FILL
XSFILL14040x2050 vdd gnd FILL
X_703_ _82_ vdd gnd _84_ _83_ _85_ NAND3X1
X_932_ vdd _313_ gnd _310_ _312_ NAND2X1
X_741_ gnd vdd _86_ _89_ _123_ _121_ AOI21X1
X_970_ vdd gnd _284_ _289_ _355_ AND2X2
X_606_ gnd vdd _520_ _528_ _538_ _537_ AOI21X1
X_835_ vdd _106_ gnd _211_ _529_ NOR2X1
X_644_ vdd _319_ gnd _26_ _25_ NOR2X1
X_1122_ gnd vdd _481_ _495_ _517_ _477_ OAI21X1
X_873_ _249_ vdd gnd _214_ _245_ _250_ NAND3X1
X_929_ vdd _310_ gnd _302_ _309_ NAND2X1
X_682_ _61_ vdd gnd _63_ _62_ _64_ NAND3X1
XFILL17000x4050 vdd gnd FILL
X_738_ gnd vdd _93_ _92_ _120_ _91_ AOI21X1
X_1160_ vdd b[1] gnd breg[1] clk_bF$buf0 DFFPOSX1
X_967_ _349_ vdd gnd _346_ _350_ _351_ NAND3X1
X_1025_ gnd vdd _405_ _408_ _413_ _363_ OAI21X1
X_776_ _146_ vdd gnd _137_ _144_ _158_ NAND3X1
X_585_ vdd _491_ gnd areg[0] breg[2] NAND2X1
XSFILL8920x2050 vdd gnd FILL
X_1063_ areg[6] vdd gnd breg[6] _453_ _454_ NAND3X1
X_1119_ vdd gnd _511_ _513_ _514_ AND2X2
X_679_ gnd vdd _20_ _544_ _61_ _18_ OAI21X1
X_1157_ vdd a[6] gnd areg[6] clk_bF$buf1 DFFPOSX1
XSFILL13960x10050 vdd gnd FILL
X_700_ gnd vdd _80_ _81_ _82_ _79_ OAI21X1
XSFILL9080x10050 vdd gnd FILL
XSFILL14040x1050 vdd gnd FILL
X_603_ _532_ vdd gnd _395_ _529_ _535_ NAND3X1
X_832_ _111_ _209_ vdd gnd INVX1
X_1098_ _489_ _492_ vdd gnd INVX1
X_641_ gnd vdd _19_ _22_ _23_ _542_ AOI21X1
X_870_ _233_ vdd gnd _216_ _237_ _247_ NAND3X1
X_926_ gnd vdd _305_ _540_ _306_ _219_ OAI21X1
X_735_ gnd vdd _116_ _113_ _117_ _102_ OAI21X1
X_964_ gnd vdd _342_ _345_ _348_ _347_ OAI21X1
XSFILL4040x3050 vdd gnd FILL
X_1022_ _410_ _363_ gnd vdd _9_[10] XNOR2X1
X_773_ _136_ vdd gnd _147_ _154_ _155_ NAND3X1
X_829_ _116_ _207_ vdd gnd INVX1
X_582_ vdd gnd areg[0] breg[4] _459_ AND2X2
XFILL17000x3050 vdd gnd FILL
X_638_ gnd vdd _17_ _16_ _20_ _15_ AOI21X1
X_1060_ vdd _451_ gnd _420_ _450_ NAND2X1
X_1116_ gnd vdd _482_ _486_ _510_ _489_ AOI21X1
X_867_ gnd vdd _134_ _155_ _242_ _162_ AOI21X1
X_676_ gnd vdd _43_ _50_ _58_ _33_ AOI21X1
X_1154_ vdd a[3] gnd areg[3] clk_bF$buf1 DFFPOSX1
XSFILL9080x8050 vdd gnd FILL
X_1019_ _407_ _398_ gnd vdd _408_ XNOR2X1
X_999_ gnd vdd _300_ _383_ _386_ _385_ OAI21X1
X_579_ vdd _427_ gnd areg[0] breg[4] NAND2X1
X_1057_ vdd _447_ gnd _412_ _439_ NAND2X1
X_600_ vdd gnd areg[1] breg[2] _532_ AND2X2
X_1095_ vdd _265_ gnd _487_ _305_ NOR2X1
X_923_ gnd vdd _141_ _219_ _303_ _149_ OAI21X1
X_732_ vdd _540_ gnd _114_ _244_ NOR2X1
X_961_ gnd vdd _344_ _343_ _345_ _296_ AOI21X1
X_770_ gnd vdd _151_ _149_ _152_ _38_ AOI21X1
X_826_ _98_ _205_ vdd gnd INVX1
XSFILL13960x6050 vdd gnd FILL
X_635_ _555_ vdd gnd _547_ _553_ _17_ NAND3X1
X_1113_ gnd vdd _506_ _494_ _507_ _500_ OAI21X1
X_864_ _232_ vdd gnd _234_ _235_ _239_ NAND3X1
XSFILL4040x2050 vdd gnd FILL
X_673_ _52_ vdd gnd _54_ _53_ _55_ NAND3X1
XSFILL14120x50 vdd gnd FILL
X_729_ vdd _104_ gnd _111_ _110_ NOR2X1
X_1151_ vdd a[0] gnd areg[0] clk_bF$buf1 DFFPOSX1
XFILL17000x2050 vdd gnd FILL
X_958_ gnd vdd _336_ _340_ _342_ _298_ AOI21X1
X_1016_ gnd vdd _355_ _358_ _404_ _359_ AOI21X1
X_767_ vdd _149_ gnd _44_ _148_ NAND2X1
X_996_ _382_ _367_ vdd gnd _380_ OR2X2
X_576_ vdd _395_ gnd areg[0] breg[3] NAND2X1
XSFILL3960x8050 vdd gnd FILL
X_1054_ _433_ _444_ vdd gnd INVX1
XSFILL9080x7050 vdd gnd FILL
X_1092_ gnd vdd _150_ _308_ _484_ _454_ OAI21X1
X_1148_ vdd _9_[13] gnd _560_[13] clk_bF$buf3 DFFPOSX1
X_899_ gnd vdd _260_ _256_ _278_ _262_ OAI21X1
X_920_ vdd _308_ gnd _300_ _559_ NOR2X1
XFILL17000x10050 vdd gnd FILL
XSFILL14360x5050 vdd gnd FILL
X_823_ _120_ _203_ vdd gnd INVX1
X_1089_ gnd vdd _480_ _478_ _481_ _474_ OAI21X1
X_632_ _13_ vdd gnd _556_ _546_ _14_ NAND3X1
X_1110_ vdd _9_[13] gnd _504_ _499_ NAND2X1
X_861_ gnd vdd _152_ _138_ _236_ _146_ OAI21X1
X_917_ vdd _265_ gnd _296_ _362_ NOR2X1
X_670_ gnd vdd _11_ _548_ _52_ _555_ OAI21X1
X_726_ vdd gnd _108_ _107_ INVX2
X_955_ vdd gnd _299_ _328_ _325_ _338_ NOR3X1
X_1013_ gnd vdd _400_ _392_ _401_ _399_ OAI21X1
X_764_ _557_ vdd gnd _142_ _145_ _146_ NAND3X1
XSFILL4040x1050 vdd gnd FILL
X_993_ vdd _379_ gnd _310_ _378_ NAND2X1
X_573_ vdd gnd _362_ breg[2] INVX4