*SPEF "IEEE 1481.1999"
*DESIGN "multiplierCarry"
*DATE "11:20:42 Tuesday September 29, 2020"
*VENDOR "unknown"
*PROGRAM "qrouter"
*VERSION "unknown"
*DESIGN_FLOW "qflow"
*DIVIDER /
*DELIMITER :
*BUS_DELIMITER <>
*T_UNIT 1 PS
*C_UNIT 1 FF
*R_UNIT 1 OHM
*L_UNIT 1 HENRY

*NAME_MAP
*1 areg[1]
*2 _1152_
*3 _843_
*4 _766_
*5 _757_
*6 _759_
*7 _763_
*8 _654_
*9 _622_
*10 _659_
*11 _581_
*12 _577_
*13 _600_
*14 _578_
*15 _591_
*16 _617_
*17 areg[0]
*18 _1151_
*19 _760_
*20 _662_
*21 _655_
*22 _561_
*23 _625_
*24 _618_
*25 _599_
*26 _585_
*27 _597_
*28 _576_
*29 _579_
*30 _582_
*31 _265_
*32 _564_
*33 _917_
*34 _1114_
*35 _980_
*36 _1094_
*37 _1070_
*38 _1069_
*39 _1095_
*40 _1026_
*41 _1118_
*42 _565_
*43 _897_
*44 breg[6]
*45 _1165_
*46 _1063_
*47 _925_
*48 _1033_
*49 _984_
*50 _843_
*51 _847_
*52 _662_
*53 _759_
*54 _655_
*55 _763_
*56 _46_
*57 _664_
*58 _665_
*59 _755_
*60 _856_
*61 _842_
*62 _1069_
*63 _1070_
*64 _931_
*65 _922_
*66 _983_
*67 _1039_
*68 _244_
*69 _562_
*70 _563_
*71 _724_
*72 _727_
*73 _723_
*74 _720_
*75 _732_
*76 _713_
*77 _708_
*78 _567_
*79 _565_
*80 _352_
*81 _572_
*82 _856_
*83 _755_
*84 _652_
*85 _615_
*86 _613_
*87 _574_
*88 _604_
*89 _717_
*90 _723_
*91 _727_
*92 _540_
*93 _608_
*94 _926_
*95 _842_
*96 _752_
*97 _649_
*98 _611_
*99 _609_
*100 _732_
*101 _720_
*102 _1029_
*103 _308_
*104 _568_
*105 _983_
*106 _1031_
*107 _920_
*108 _1058_
*109 _1092_
*110 _839_
*111 _746_
*112 _570_
*113 _708_
*114 _25_
*115 _643_
*116 _1059_
*117 _988_
*118 _931_
*119 _922_
*120 _840_
*121 _749_
*122 _646_
*123 _644_
*124 _713_
*125 breg[7]
*126 _1166_
*127 _924_
*128 _1027_
*129 _844_
*130 _766_
*131 _757_
*132 _768_
*133 _760_
*134 _843_
*135 _150_
*136 _768_
*137 _1092_
*138 _1058_
*139 _1059_
*140 _1090_
*141 _1118_
*142 _1114_
*143 _1029_
*144 _769_
*145 _287_
*146 _566_
*147 _1039_
*148 _1061_
*149 _982_
*150 _1090_
*151 _919_
*152 _838_
*153 _567_
*154 _743_
*155 _319_
*156 _569_
*157 _721_
*158 _717_
*159 _604_
*160 _609_
*161 _644_
*162 _570_
*163 _743_
*164 _897_
*165 clk_bF_buf3
*166 CLKBUF1_insert1
*167 _1148_
*168 _1146_
*169 _1145_
*170 _1147_
*171 _1149_
*172 _1144_
*173 _1165_
*174 clk_bF_buf4
*175 CLKBUF1_insert0
*176 _1162_
*177 _1158_
*178 _1143_
*179 _1174_
*180 _1173_
*181 _1172_
*182 _1150_
*183 _559_
*184 _627_
*185 _652_
*186 _840_
*187 _982_
*188 _920_
*189 _1026_
*190 _752_
*191 _628_
*192 _362_
*193 _573_
*194 _613_
*195 _611_
*196 _646_
*197 _746_
*198 _574_
*199 _838_
*200 _917_
*201 _524_
*202 _592_
*203 _593_
*204 _615_
*205 _649_
*206 _749_
*207 _839_
*208 _980_
*209 _919_
*210 clk_bF_buf0
*211 CLKBUF1_insert4
*212 _1160_
*213 _1168_
*214 _1169_
*215 _1170_
*216 _1171_
*217 _1159_
*218 clk_bF_buf1
*219 CLKBUF1_insert3
*220 _1155_
*221 _1151_
*222 _1154_
*223 _1156_
*224 _1157_
*225 _1153_
*226 clk_bF_buf2
*227 CLKBUF1_insert2
*228 _1152_
*229 _1164_
*230 _1163_
*231 _1161_
*232 _1167_
*233 _1166_
*234 _305_
*235 _925_
*236 _1031_
*237 _988_
*238 _1061_
*239 _1094_
*240 _1095_
*241 _926_
*242 clk
*243 CLKBUF1_insert4
*244 CLKBUF1_insert0
*245 CLKBUF1_insert2
*246 CLKBUF1_insert3
*247 CLKBUF1_insert1
*248 breg[3]
*249 _1162_
*250 _599_
*251 _592_
*252 _578_
*253 _576_
*254 _581_
*255 breg[4]
*256 _1163_
*257 _622_
*258 _627_
*259 _582_
*260 _617_
*261 _579_
*262 breg[5]
*263 _1164_
*264 _625_
*265 _659_
*266 _654_
*267 _618_
*268 _664_
*269 _512_
*270 _587_
*271 _613_
*272 _588_
*273 _633_
*274 _689_
*275 _595_
*276 _523_
*277 _591_
*278 _628_
*279 _665_
*280 _724_
*281 _721_
*282 _593_
*283 _37_
*284 _655_
*285 _758_
*286 _656_
*287 _657_
*288 _665_
*289 _660_
*290 _146_
*291 _764_
*292 _776_
*293 _771_
*294 _765_
*295 _861_
*296 _856_
*297 _149_
*298 _767_
*299 _846_
*300 _985_
*301 _923_
*302 _854_
*303 _770_
*304 _386_
*305 _999_
*306 _1003_
*307 _1045_
*308 _1000_
*309 _1006_
*310 _381_
*311 _995_
*312 _1045_
*313 _1000_
*314 _1001_
*315 _1007_
*316 _392_
*317 _1005_
*318 _1023_
*319 _1018_
*320 _1013_
*321 _1011_
*322 _396_
*323 _1008_
*324 _1018_
*325 _1024_
*326 _1011_
*327 _1012_
*328 _335_
*329 _952_
*330 _956_
*331 _959_
*332 _953_
*333 _1009_
*334 _398_
*335 _1010_
*336 _1011_
*337 _1012_
*338 _1024_
*339 _1019_
*340 _360_
*341 _975_
*342 _976_
*343 _1017_
*344 _1014_
*345 _1078_
*346 _363_
*347 _978_
*348 _1079_
*349 _1025_
*350 _1049_
*351 _1022_
*352 _439_
*353 _1048_
*354 _1057_
*355 _1052_
*356 _1088_
*357 _1082_
*358 _446_
*359 _1056_
*360 _1112_
*361 _1103_
*362 _1087_
*363 _1084_
*364 _474_
*365 _1082_
*366 _1083_
*367 _1107_
*368 _1104_
*369 _1089_
*370 _477_
*371 _1086_
*372 _1106_
*373 _1125_
*374 _1122_
*375 _1105_
*376 _494_
*377 _1100_
*378 _1107_
*379 _1104_
*380 _1101_
*381 _1113_
*382 areg[2]
*383 _1153_
*384 _844_
*385 _843_
*386 _847_
*387 _572_
*388 breg[2]
*389 _1161_
*390 _573_
*391 _585_
*392 _600_
*393 _577_
*394 _297_
*395 _567_
*396 _812_
*397 _813_
*398 _742_
*399 _821_
*400 _330_
*401 _570_
*402 _707_
*403 _571_
*404 _745_
*405 _811_
*406 _406_
*407 _577_
*408 _584_
*409 _722_
*410 _589_
*411 _602_
*412 _529_
*413 _597_
*414 _835_
*415 _725_
*416 _603_
*417 _598_
*418 _543_
*419 _611_
*420 _648_
*421 _612_
*422 _640_
*423 _696_
*424 _547_
*425 _615_
*426 _616_
*427 _635_
*428 _631_
*429 _651_
*430 _550_
*431 _618_
*432 _623_
*433 _628_
*434 _619_
*435 _620_
*436 _555_
*437 _623_
*438 _630_
*439 _670_
*440 _635_
*441 _624_
*442 _28_
*443 _646_
*444 _686_
*445 _748_
*446 _702_
*447 _647_
*448 _31_
*449 _649_
*450 _650_
*451 _751_
*452 _677_
*453 _681_
*454 _34_
*455 _652_
*456 _672_
*457 _668_
*458 _653_
*459 _754_
*460 _42_
*461 _660_
*462 _672_
*463 _667_
*464 _774_
*465 _661_
*466 _121_
*467 _739_
*468 _822_
*469 _740_
*470 _741_
*471 _814_
*472 _125_
*473 _743_
*474 _906_
*475 _816_
*476 _808_
*477 _744_
*478 _128_
*479 _746_
*480 _803_
*481 _799_
*482 _891_
*483 _747_
*484 _131_
*485 _749_
*486 _750_
*487 _794_
*488 _878_
*489 _790_
*490 _134_
*491 _752_
*492 _867_
*493 _781_
*494 _785_
*495 _753_
*496 _141_
*497 _759_
*498 _769_
*499 _761_
*500 _845_
*501 _923_
*502 _213_
*503 _838_
*504 _894_
*505 _884_
*506 _885_
*507 _900_
*508 _214_
*509 _839_
*510 _874_
*511 _873_
*512 _887_
*513 _881_
*514 _219_
*515 _844_
*516 _923_
*517 _845_
*518 _986_
*519 _926_
*520 _224_
*521 _849_
*522 _858_
*523 _865_
*524 _934_
*525 _933_
*526 _275_
*527 _897_
*528 _915_
*529 _903_
*530 _898_
*531 _908_
*532 _300_
*533 _920_
*534 _937_
*535 _936_
*536 _945_
*537 _999_
*538 _315_
*539 _934_
*540 _938_
*541 _939_
*542 _992_
*543 _935_
*544 _367_
*545 _982_
*546 _996_
*547 _995_
*548 _1002_
*549 _380_
*550 _994_
*551 _995_
*552 _996_
*553 _1002_
*554 _389_
*555 _1002_
*556 _1045_
*557 _1004_
*558 _1006_
*559 _338_
*560 _955_
*561 _957_
*562 _959_
*563 _1009_
*564 _329_
*565 _947_
*566 _953_
*567 _960_
*568 _1009_
*569 _402_
*570 _1014_
*571 _1079_
*572 _1051_
*573 _1021_
*574 _295_
*575 _916_
*576 _979_
*577 _1015_
*578 _977_
*579 _409_
*580 _1020_
*581 _1048_
*582 _1050_
*583 _1021_
*584 _412_
*585 _1024_
*586 _1077_
*587 _1057_
*588 _1053_
*589 _374_
*590 _988_
*591 _1028_
*592 _1030_
*593 _989_
*594 _379_
*595 _993_
*596 _994_
*597 _1037_
*598 _1036_
*599 _368_
*600 _983_
*601 _1037_
*602 _1036_
*603 _991_
*604 _428_
*605 _1038_
*606 _1040_
*607 _1068_
*608 _1066_
*609 _429_
*610 _1039_
*611 _1066_
*612 _1068_
*613 _1040_
*614 _442_
*615 _1051_
*616 _1052_
*617 _1111_
*618 _1076_
*619 _467_
*620 _1075_
*621 _1081_
*622 _1076_
*623 _1111_
*624 _468_
*625 _1076_
*626 _1112_
*627 _1103_
*628 _1083_
*629 _481_
*630 _1089_
*631 _1122_
*632 _1108_
*633 _1102_
*634 _495_
*635 _1101_
*636 _1108_
*637 _1102_
*638 _1122_
*639 _501_
*640 _1107_
*641 _1121_
*642 _1109_
*643 _1125_
*644 areg[3]
*645 _1154_
*646 _608_
*647 _984_
*648 _924_
*649 _276_
*650 _565_
*651 _971_
*652 _819_
*653 _912_
*654 _341_
*655 _571_
*656 _810_
*657 _801_
*658 _704_
*659 _373_
*660 _574_
*661 _689_
*662 _575_
*663 _596_
*664 _384_
*665 _575_
*666 _688_
*667 _633_
*668 _588_
*669 _395_
*670 _576_
*671 _584_
*672 _589_
*673 _603_
*674 _427_
*675 _579_
*676 _580_
*677 _593_
*678 _587_
*679 _448_
*680 _581_
*681 _583_
*682 _590_
*683 _587_
*684 _459_
*685 _582_
*686 _660_
*687 _583_
*688 _590_
*689 _490_
*690 _584_
*691 _588_
*692 _689_
*693 _614_
*694 _526_
*695 _594_
*696 _633_
*697 _596_
*698 _688_
*699 _534_
*700 _602_
*701 _718_
*702 _605_
*703 _690_
*704 _541_
*705 _609_
*706 _693_
*707 _610_
*708 _715_
*709 _544_
*710 _612_
*711 _695_
*712 _679_
*713 _637_
*714 _548_
*715 _616_
*716 _670_
*717 _624_
*718 _634_
*719 _553_
*720 _621_
*721 _651_
*722 _635_
*723 _624_
*724 _11_
*725 _629_
*726 _631_
*727 _634_
*728 _670_
*729 _12_
*730 _630_
*731 _651_
*732 _631_
*733 _634_
*734 _14_
*735 _632_
*736 _648_
*737 _637_
*738 _696_
*739 _18_
*740 _636_
*741 _679_
*742 _637_
*743 _696_
*744 _20_
*745 _638_
*746 _679_
*747 _695_
*748 _640_
*749 _21_
*750 _639_
*751 _648_
*752 _640_
*753 _695_
*754 _26_
*755 _644_
*756 _645_
*757 _699_
*758 _710_
*759 _29_
*760 _647_
*761 _683_
*762 _701_
*763 _792_
*764 _32_
*765 _650_
*766 _783_
*767 _674_
*768 _680_
*769 _35_
*770 _653_
*771 _774_
*772 _661_
*773 _671_
*774 _40_
*775 _658_
*776 _672_
*777 _754_
*778 _661_
*779 _44_
*780 _662_
*781 _767_
*782 _848_
*783 _663_
*784 _48_
*785 _666_
*786 _668_
*787 _671_
*788 _774_
*789 _49_
*790 _667_
*791 _668_
*792 _671_
*793 _754_
*794 _51_
*795 _669_
*796 _751_
*797 _674_
*798 _681_
*799 _55_
*800 _673_
*801 _681_
*802 _674_
*803 _783_
*804 _57_
*805 _675_
*806 _680_
*807 _677_
*808 _783_
*809 _58_
*810 _676_
*811 _680_
*812 _677_
*813 _751_
*814 _60_
*815 _678_
*816 _748_
*817 _702_
*818 _683_
*819 _64_
*820 _682_
*821 _792_
*822 _683_
*823 _702_
*824 _66_
*825 _684_
*826 _686_
*827 _792_
*828 _701_
*829 _67_
*830 _685_
*831 _686_
*832 _701_
*833 _748_
*834 _69_
*835 _687_
*836 _811_
*837 _745_
*838 _704_
*839 _85_
*840 _703_
*841 _801_
*842 _811_
*843 _704_
*844 _86_
*845 _704_
*846 _820_
*847 _740_
*848 _741_
*849 _87_
*850 _705_
*851 _801_
*852 _810_
*853 _707_
*854 _88_
*855 _706_
*856 _745_
*857 _707_
*858 _810_
*859 _89_
*860 _707_
*861 _820_
*862 _741_
*863 _740_
*864 _108_
*865 _726_
*866 _836_
*867 _730_
*868 _834_
*869 _126_
*870 _744_
*871 _815_
*872 _805_
*873 _837_
*874 _129_
*875 _747_
*876 _802_
*877 _895_
*878 _796_
*879 _132_
*880 _750_
*881 _882_
*882 _793_
*883 _787_
*884 _135_
*885 _753_
*886 _778_
*887 _871_
*888 _784_
*889 _137_
*890 _755_
*891 _772_
*892 _776_
*893 _756_
*894 _138_
*895 _756_
*896 _775_
*897 _765_
*898 _861_
*899 _144_
*900 _762_
*901 _857_
*902 _765_
*903 _776_
*904 _152_
*905 _770_
*906 _775_
*907 _861_
*908 _772_
*909 _155_
*910 _773_
*911 _867_
*912 _785_
*913 _778_
*914 _159_
*915 _777_
*916 _778_
*917 _785_
*918 _871_
*919 _161_
*920 _779_
*921 _784_
*922 _781_
*923 _871_
*924 _162_
*925 _780_
*926 _781_
*927 _784_
*928 _867_
*929 _164_
*930 _782_
*931 _794_
*932 _878_
*933 _787_
*934 _168_
*935 _786_
*936 _794_
*937 _882_
*938 _787_
*939 _170_
*940 _788_
*941 _882_
*942 _790_
*943 _793_
*944 _171_
*945 _789_
*946 _790_
*947 _793_
*948 _878_
*949 _173_
*950 _791_
*951 _803_
*952 _796_
*953 _891_
*954 _177_
*955 _795_
*956 _796_
*957 _803_
*958 _895_
*959 _179_
*960 _797_
*961 _802_
*962 _799_
*963 _895_
*964 _180_
*965 _798_
*966 _802_
*967 _799_
*968 _891_
*969 _182_
*970 _800_
*971 _906_
*972 _816_
*973 _805_
*974 _186_
*975 _804_
*976 _816_
*977 _837_
*978 _805_
*979 _188_
*980 _806_
*981 _808_
*982 _815_
*983 _837_
*984 _189_
*985 _807_
*986 _906_
*987 _815_
*988 _808_
*989 _215_
*990 _840_
*991 _841_
*992 _866_
*993 _869_
*994 _217_
*995 _842_
*996 _860_
*997 _850_
*998 _849_
*999 _218_
*1000 _843_
*1001 _846_
*1002 _851_
*1003 _852_
*1004 _222_
*1005 _847_
*1006 _848_
*1007 _853_
*1008 _927_
*1009 _228_
*1010 _853_
*1011 _985_
*1012 _986_
*1013 _854_
*1014 _230_
*1015 _855_
*1016 _865_
*1017 _858_
*1018 _921_
*1019 _236_
*1020 _861_
*1021 _862_
*1022 _865_
*1023 _921_
*1024 _241_
*1025 _866_
*1026 _941_
*1027 _868_
*1028 _876_
*1029 _242_
*1030 _867_
*1031 _941_
*1032 _868_
*1033 _875_
*1034 _245_
*1035 _868_
*1036 _887_
*1037 _873_
*1038 _880_
*1039 _246_
*1040 _869_
*1041 _941_
*1042 _875_
*1043 _872_
*1044 _249_
*1045 _872_
*1046 _887_
*1047 _873_
*1048 _880_
*1049 _251_
*1050 _874_
*1051 _880_
*1052 _886_
*1053 _877_
*1054 _252_
*1055 _875_
*1056 _886_
*1057 _877_
*1058 _881_
*1059 _253_
*1060 _876_
*1061 _886_
*1062 _877_
*1063 _881_
*1064 _254_
*1065 _877_
*1066 _952_
*1067 _889_
*1068 _879_
*1069 _256_
*1070 _879_
*1071 _884_
*1072 _894_
*1073 _899_
*1074 _259_
*1075 _882_
*1076 _883_
*1077 _952_
*1078 _888_
*1079 _260_
*1080 _883_
*1081 _899_
*1082 _884_
*1083 _894_
*1084 _261_
*1085 _884_
*1086 _962_
*1087 _902_
*1088 _892_
*1089 _262_
*1090 _885_
*1091 _899_
*1092 _893_
*1093 _890_
*1094 _266_
*1095 _888_
*1096 _890_
*1097 _893_
*1098 _900_
*1099 _267_
*1100 _889_
*1101 _900_
*1102 _893_
*1103 _890_
*1104 _269_
*1105 _891_
*1106 _892_
*1107 _962_
*1108 _901_
*1109 _270_
*1110 _892_
*1111 _914_
*1112 _908_
*1113 _898_
*1114 _274_
*1115 _896_
*1116 _908_
*1117 _898_
*1118 _914_
*1119 _282_
*1120 _903_
*1121 _916_
*1122 _904_
*1123 _907_
*1124 _296_
*1125 _917_
*1126 _961_
*1127 _965_
*1128 _918_
*1129 _299_
*1130 _919_
*1131 _955_
*1132 _947_
*1133 _948_
*1134 _310_
*1135 _929_
*1136 _932_
*1137 _935_
*1138 _993_
*1139 _313_
*1140 _932_
*1141 _938_
*1142 _933_
*1143 _939_
*1144 _317_
*1145 _936_
*1146 _998_
*1147 _950_
*1148 _943_
*1149 _320_
*1150 _938_
*1151 _940_
*1152 _945_
*1153 _997_
*1154 _321_
*1155 _939_
*1156 _940_
*1157 _945_
*1158 _997_
*1159 _323_
*1160 _941_
*1161 _942_
*1162 _949_
*1163 _946_
*1164 _324_
*1165 _942_
*1166 _950_
*1167 _998_
*1168 _943_
*1169 _382_
*1170 _996_
*1171 _1000_
*1172 _1007_
*1173 _388_
*1174 _1001_
*1175 _1004_
*1176 _1006_
*1177 _390_
*1178 _1003_
*1179 _1004_
*1180 _1007_
*1181 _365_
*1182 _980_
*1183 _981_
*1184 _1008_
*1185 _401_
*1186 _1013_
*1187 _1078_
*1188 _1014_
*1189 _364_
*1190 _979_
*1191 _1078_
*1192 _1014_
*1193 _355_
*1194 _970_
*1195 _975_
*1196 _1016_
*1197 _358_
*1198 _973_
*1199 _975_
*1200 _1016_
*1201 _359_
*1202 _974_
*1203 _975_
*1204 _1016_
*1205 _405_
*1206 _1017_
*1207 _1025_
*1208 _1020_
*1209 _408_
*1210 _1019_
*1211 _1020_
*1212 _1025_
*1213 _414_
*1214 _1026_
*1215 _1042_
*1216 _1043_
*1217 areg[4]
*1218 _1155_
*1219 _1027_
*1220 _643_
*1221 _370_
*1222 _985_
*1223 _987_
*1224 _1028_
*1225 _371_
*1226 _986_
*1227 _1028_
*1228 _987_
*1229 _372_
*1230 _987_
*1231 _989_
*1232 _1030_
*1233 _419_
*1234 _1030_
*1235 _1031_
*1236 _1032_
*1237 _420_
*1238 _1031_
*1239 _1060_
*1240 _1034_
*1241 areg[5]
*1242 _1156_
*1243 _568_
*1244 _1033_
*1245 _422_
*1246 _1033_
*1247 _1034_
*1248 _1059_
*1249 _424_
*1250 _1035_
*1251 _1067_
*1252 _1041_
*1253 _376_
*1254 _990_
*1255 _991_
*1256 _1036_
*1257 _431_
*1258 _1041_
*1259 _1043_
*1260 _1042_
*1261 _432_
*1262 _1042_
*1263 _1056_
*1264 _1044_
*1265 _433_
*1266 _1043_
*1267 _1054_
*1268 _1044_
*1269 _435_
*1270 _1045_
*1271 _1046_
*1272 _1055_
*1273 _436_
*1274 _1046_
*1275 _1047_
*1276 _1051_
*1277 _437_
*1278 _1047_
*1279 _1048_
*1280 _1080_
*1281 _447_
*1282 _1057_
*1283 _1111_
*1284 _1076_
*1285 _451_
*1286 _1060_
*1287 _1062_
*1288 _1061_
*1289 _452_
*1290 _1061_
*1291 _1093_
*1292 _1064_
*1293 areg[6]
*1294 _1157_
*1295 _566_
*1296 _1063_
*1297 _454_
*1298 _1063_
*1299 _1064_
*1300 _1092_
*1301 _456_
*1302 _1065_
*1303 _1086_
*1304 _1075_
*1305 _460_
*1306 _1068_
*1307 _1072_
*1308 _1069_
*1309 _461_
*1310 _1069_
*1311 _1085_
*1312 _1074_
*1313 _465_
*1314 _1073_
*1315 _1074_
*1316 _1086_
*1317 _472_
*1318 _1080_
*1319 _1088_
*1320 _1082_
*1321 _473_
*1322 _1081_
*1323 _1088_
*1324 _1082_
*1325 _482_
*1326 _1090_
*1327 _1116_
*1328 _1091_
*1329 _485_
*1330 _1093_
*1331 _1094_
*1332 _1097_
*1333 _486_
*1334 _1094_
*1335 _1099_
*1336 _1116_
*1337 _489_
*1338 _1097_
*1339 _1116_
*1340 _1098_
*1341 _497_
*1342 _1103_
*1343 _1107_
*1344 _1104_
*1345 _498_
*1346 _1104_
*1347 _1125_
*1348 _1105_
*1349 _500_
*1350 _1106_
*1351 _1113_
*1352 _1109_
*1353 _503_
*1354 _1108_
*1355 _1123_
*1356 _1109_
*1357 _509_
*1358 _1115_
*1359 _1126_
*1360 _1117_
*1361 _510_
*1362 _1116_
*1363 _1118_
*1364 _1117_
*1365 _511_
*1366 _1117_
*1367 _1119_
*1368 _1126_
*1369 _514_
*1370 _1119_
*1371 _1120_
*1372 _1123_
*1373 breg[1]
*1374 _1160_
*1375 _597_
*1376 _569_
*1377 _243_
*1378 _561_
*1379 _563_
*1380 _769_
*1381 _438_
*1382 _580_
*1383 _629_
*1384 _584_
*1385 _491_
*1386 _585_
*1387 _721_
*1388 _586_
*1389 _520_
*1390 _588_
*1391 _606_
*1392 _607_
*1393 _521_
*1394 _589_
*1395 _602_
*1396 _594_
*1397 _522_
*1398 _590_
*1399 _621_
*1400 _594_
*1401 _527_
*1402 _595_
*1403 _596_
*1404 _688_
*1405 _528_
*1406 _596_
*1407 _607_
*1408 _606_
*1409 _530_
*1410 _598_
*1411 _602_
*1412 _722_
*1413 _531_
*1414 _599_
*1415 _623_
*1416 _601_
*1417 _532_
*1418 _600_
*1419 _601_
*1420 _603_
*1421 _535_
*1422 _603_
*1423 _718_
*1424 _604_
*1425 _536_
*1426 _604_
*1427 _605_
*1428 _690_
*1429 _537_
*1430 _605_
*1431 _607_
*1432 _606_
*1433 _538_
*1434 _606_
*1435 _714_
*1436 _610_
*1437 _539_
*1438 _607_
*1439 _610_
*1440 _715_
*1441 _542_
*1442 _610_
*1443 _641_
*1444 _642_
*1445 _546_
*1446 _614_
*1447 _639_
*1448 _632_
*1449 _549_
*1450 _617_
*1451 _619_
*1452 _620_
*1453 _551_
*1454 _619_
*1455 _621_
*1456 _666_
*1457 _554_
*1458 _622_
*1459 _626_
*1460 _623_
*1461 _556_
*1462 _624_
*1463 _632_
*1464 _639_
*1465 _557_
*1466 _625_
*1467 _764_
*1468 _626_
*1469 _558_
*1470 _626_
*1471 _658_
*1472 _629_
*1473 _13_
*1474 _631_
*1475 _639_
*1476 _632_
*1477 _15_
*1478 _633_
*1479 _638_
*1480 _636_
*1481 _16_
*1482 _634_
*1483 _636_
*1484 _638_
*1485 _17_
*1486 _635_
*1487 _636_
*1488 _638_
*1489 _19_
*1490 _637_
*1491 _641_
*1492 _642_
*1493 _22_
*1494 _640_
*1495 _641_
*1496 _642_
*1497 _23_
*1498 _641_
*1499 _710_
*1500 _645_
*1501 _24_
*1502 _642_
*1503 _711_
*1504 _645_
*1505 _27_
*1506 _645_
*1507 _687_
*1508 _706_
*1509 _30_
*1510 _648_
*1511 _685_
*1512 _678_
*1513 _33_
*1514 _651_
*1515 _676_
*1516 _669_
*1517 _36_
*1518 _654_
*1519 _656_
*1520 _657_
*1521 _38_
*1522 _656_
*1523 _658_
*1524 _770_
*1525 _41_
*1526 _659_
*1527 _660_
*1528 _663_
*1529 _43_
*1530 _661_
*1531 _669_
*1532 _676_
*1533 _45_
*1534 _663_
*1535 _762_
*1536 _666_
*1537 _50_
*1538 _668_
*1539 _669_
*1540 _676_
*1541 _52_
*1542 _670_
*1543 _675_
*1544 _673_
*1545 _53_
*1546 _671_
*1547 _673_
*1548 _675_
*1549 _54_
*1550 _672_
*1551 _673_
*1552 _675_
*1553 _56_
*1554 _674_
*1555 _685_
*1556 _678_
*1557 _59_
*1558 _677_
*1559 _685_
*1560 _678_
*1561 _61_
*1562 _679_
*1563 _682_
*1564 _684_
*1565 _62_
*1566 _680_
*1567 _684_
*1568 _682_
*1569 _63_
*1570 _681_
*1571 _684_
*1572 _682_
*1573 _65_
*1574 _683_
*1575 _687_
*1576 _706_
*1577 _68_
*1578 _686_
*1579 _706_
*1580 _687_
*1581 _70_
*1582 _688_
*1583 _692_
*1584 _691_
*1585 _71_
*1586 _689_
*1587 _692_
*1588 _691_
*1589 _72_
*1590 _690_
*1591 _692_
*1592 _691_
*1593 _73_
*1594 _691_
*1595 _694_
*1596 _715_
*1597 _74_
*1598 _692_
*1599 _694_
*1600 _714_
*1601 _75_
*1602 _693_
*1603 _694_
*1604 _714_
*1605 _76_
*1606 _694_
*1607 _697_
*1608 _698_
*1609 _77_
*1610 _695_
*1611 _698_
*1612 _697_
*1613 _78_
*1614 _696_
*1615 _697_
*1616 _698_
*1617 _79_
*1618 _697_
*1619 _711_
*1620 _700_
*1621 _80_
*1622 _698_
*1623 _700_
*1624 _710_
*1625 _81_
*1626 _699_
*1627 _700_
*1628 _711_
*1629 _82_
*1630 _700_
*1631 _703_
*1632 _705_
*1633 _83_
*1634 _701_
*1635 _703_
*1636 _705_
*1637 _84_
*1638 _702_
*1639 _703_
*1640 _705_
*1641 _91_
*1642 _709_
*1643 _738_
*1644 _712_
*1645 _92_
*1646 _710_
*1647 _738_
*1648 _712_
*1649 _93_
*1650 _711_
*1651 _712_
*1652 _738_
*1653 _94_
*1654 _712_
*1655 _739_
*1656 _824_
*1657 _95_
*1658 _713_
*1659 _736_
*1660 _716_
*1661 _96_
*1662 _714_
*1663 _716_
*1664 _736_
*1665 _97_
*1666 _715_
*1667 _716_
*1668 _736_
*1669 _98_
*1670 _716_
*1671 _826_
*1672 _737_
*1673 _101_
*1674 _719_
*1675 _720_
*1676 _734_
*1677 _102_
*1678 _720_
*1679 _830_
*1680 _735_
*1681 _104_
*1682 _722_
*1683 _729_
*1684 _723_
*1685 _105_
*1686 _723_
*1687 _730_
*1688 _833_
*1689 _106_
*1690 _724_
*1691 _835_
*1692 _725_
*1693 _111_
*1694 _729_
*1695 _832_
*1696 _730_
*1697 _113_
*1698 _731_
*1699 _831_
*1700 _735_
*1701 _116_
*1702 _734_
*1703 _735_
*1704 _829_
*1705 _117_
*1706 _735_
*1707 _828_
*1708 _737_
*1709 _118_
*1710 _736_
*1711 _737_
*1712 _827_
*1713 _119_
*1714 _737_
*1715 _825_
*1716 _739_
*1717 _120_
*1718 _738_
*1719 _823_
*1720 _739_
*1721 _124_
*1722 _742_
*1723 _809_
*1724 _911_
*1725 _127_
*1726 _745_
*1727 _800_
*1728 _807_
*1729 _130_
*1730 _748_
*1731 _798_
*1732 _791_
*1733 _133_
*1734 _751_
*1735 _782_
*1736 _789_
*1737 _136_
*1738 _754_
*1739 _780_
*1740 _773_
*1741 _139_
*1742 _757_
*1743 _758_
*1744 _853_
*1745 _140_
*1746 _758_
*1747 _762_
*1748 _851_
*1749 _142_
*1750 _760_
*1751 _761_
*1752 _764_
*1753 _147_
*1754 _765_
*1755 _780_
*1756 _773_
*1757 _148_
*1758 _766_
*1759 _767_
*1760 _848_
*1761 _153_
*1762 _771_
*1763 _772_
*1764 _775_
*1765 _154_
*1766 _772_
*1767 _780_
*1768 _773_
*1769 _156_
*1770 _774_
*1771 _779_
*1772 _777_
*1773 _157_
*1774 _775_
*1775 _777_
*1776 _779_
*1777 _158_
*1778 _776_
*1779 _779_
*1780 _777_
*1781 _160_
*1782 _778_
*1783 _789_
*1784 _782_
*1785 _163_
*1786 _781_
*1787 _789_
*1788 _782_
*1789 _165_
*1790 _783_
*1791 _786_
*1792 _788_
*1793 _166_
*1794 _784_
*1795 _786_
*1796 _788_
*1797 _167_
*1798 _785_
*1799 _788_
*1800 _786_
*1801 _169_
*1802 _787_
*1803 _798_
*1804 _791_
*1805 _172_
*1806 _790_
*1807 _798_
*1808 _791_
*1809 _174_
*1810 _792_
*1811 _795_
*1812 _797_
*1813 _175_
*1814 _793_
*1815 _797_
*1816 _795_
*1817 _176_
*1818 _794_
*1819 _797_
*1820 _795_
*1821 _178_
*1822 _796_
*1823 _807_
*1824 _800_
*1825 _181_
*1826 _799_
*1827 _800_
*1828 _807_
*1829 _183_
*1830 _801_
*1831 _804_
*1832 _806_
*1833 _184_
*1834 _802_
*1835 _806_
*1836 _804_
*1837 _185_
*1838 _803_
*1839 _806_
*1840 _804_
*1841 _187_
*1842 _805_
*1843 _809_
*1844 _911_
*1845 _190_
*1846 _808_
*1847 _911_
*1848 _809_
*1849 _191_
*1850 _809_
*1851 _818_
*1852 _912_
*1853 _192_
*1854 _810_
*1855 _813_
*1856 _812_
*1857 _193_
*1858 _811_
*1859 _813_
*1860 _812_
*1861 _196_
*1862 _814_
*1863 _972_
*1864 _817_
*1865 _197_
*1866 _815_
*1867 _972_
*1868 _817_
*1869 _198_
*1870 _816_
*1871 _972_
*1872 _817_
*1873 _199_
*1874 _817_
*1875 _818_
*1876 _973_
*1877 _212_
*1878 _837_
*1879 _905_
*1880 _915_
*1881 _216_
*1882 _841_
*1883 _870_
*1884 _863_
*1885 _220_
*1886 _845_
*1887 _851_
*1888 _846_
*1889 _221_
*1890 _846_
*1891 _849_
*1892 _859_
*1893 _223_
*1894 _848_
*1895 _849_
*1896 _859_
*1897 _225_
*1898 _850_
*1899 _855_
*1900 _859_
*1901 _226_
*1902 _851_
*1903 _855_
*1904 _860_
*1905 _229_
*1906 _854_
*1907 _855_
*1908 _860_
*1909 _232_
*1910 _857_
*1911 _864_
*1912 _858_
*1913 _233_
*1914 _858_
*1915 _870_
*1916 _863_
*1917 _234_
*1918 _859_
*1919 _862_
*1920 _864_
*1921 _235_
*1922 _860_
*1923 _864_
*1924 _862_
*1925 _237_
*1926 _862_
*1927 _870_
*1928 _863_
*1929 _238_
*1930 _863_
*1931 _868_
*1932 _876_
*1933 _239_
*1934 _864_
*1935 _866_
*1936 _869_
*1937 _240_
*1938 _865_
*1939 _869_
*1940 _866_
*1941 _247_
*1942 _870_
*1943 _875_
*1944 _872_
*1945 _248_
*1946 _871_
*1947 _876_
*1948 _872_
*1949 _250_
*1950 _873_
*1951 _889_
*1952 _879_
*1953 _255_
*1954 _878_
*1955 _879_
*1956 _889_
*1957 _263_
*1958 _886_
*1959 _888_
*1960 _952_
*1961 _268_
*1962 _890_
*1963 _902_
*1964 _892_
*1965 _272_
*1966 _894_
*1967 _962_
*1968 _896_
*1969 _273_
*1970 _895_
*1971 _902_
*1972 _896_
*1973 _280_
*1974 _901_
*1975 _904_
*1976 _907_
*1977 _281_
*1978 _902_
*1979 _907_
*1980 _904_
*1981 _284_
*1982 _905_
*1983 _910_
*1984 _970_
*1985 _285_
*1986 _906_
*1987 _916_
*1988 _909_
*1989 _289_
*1990 _909_
*1991 _970_
*1992 _910_
*1993 _290_
*1994 _910_
*1995 _913_
*1996 _969_
*1997 _292_
*1998 _912_
*1999 _913_
*2000 _969_
*2001 _298_
*2002 _918_
*2003 _966_
*2004 _958_
*2005 _301_
*2006 _921_
*2007 _933_
*2008 _934_
*2009 _302_
*2010 _922_
*2011 _929_
*2012 _992_
*2013 _303_
*2014 _923_
*2015 _930_
*2016 _928_
*2017 _304_
*2018 _924_
*2019 _990_
*2020 _927_
*2021 _307_
*2022 _927_
*2023 _930_
*2024 _928_
*2025 _309_
*2026 _928_
*2027 _992_
*2028 _929_
*2029 _312_
*2030 _931_
*2031 _935_
*2032 _932_
*2033 _314_
*2034 _933_
*2035 _936_
*2036 _944_
*2037 _316_
*2038 _935_
*2039 _944_
*2040 _936_
*2041 _318_
*2042 _937_
*2043 _940_
*2044 _944_
*2045 _322_
*2046 _940_
*2047 _950_
*2048 _943_
*2049 _325_
*2050 _943_
*2051 _947_
*2052 _955_
*2053 _326_
*2054 _944_
*2055 _946_
*2056 _949_
*2057 _327_
*2058 _945_
*2059 _946_
*2060 _949_
*2061 _328_
*2062 _946_
*2063 _955_
*2064 _947_
*2065 _331_
*2066 _948_
*2067 _951_
*2068 _954_
*2069 _332_
*2070 _949_
*2071 _954_
*2072 _951_
*2073 _333_
*2074 _950_
*2075 _954_
*2076 _951_
*2077 _334_
*2078 _951_
*2079 _953_
*2080 _960_
*2081 _336_
*2082 _953_
*2083 _958_
*2084 _966_
*2085 _337_
*2086 _954_
*2087 _957_
*2088 _959_
*2089 _339_
*2090 _956_
*2091 _957_
*2092 _960_
*2093 _340_
*2094 _957_
*2095 _958_
*2096 _966_
*2097 _343_
*2098 _959_
*2099 _961_
*2100 _965_
*2101 _344_
*2102 _960_
*2103 _965_
*2104 _961_
*2105 _345_
*2106 _961_
*2107 _964_
*2108 _978_
*2109 _346_
*2110 _962_
*2111 _967_
*2112 _963_
*2113 _347_
*2114 _963_
*2115 _978_
*2116 _964_
*2117 _348_
*2118 _964_
*2119 _968_
*2120 _974_
*2121 _349_
*2122 _965_
*2123 _967_
*2124 _978_
*2125 _351_
*2126 _967_
*2127 _968_
*2128 _974_
*2129 _354_
*2130 _969_
*2131 _976_
*2132 _979_
*2133 _369_
*2134 _984_
*2135 _986_
*2136 _985_
*2137 _387_
*2138 _1000_
*2139 _1005_
*2140 _391_
*2141 _1004_
*2142 _1005_
*2143 _366_
*2144 _981_
*2145 _1005_
*2146 _393_
*2147 _1006_
*2148 _1008_
*2149 _394_
*2150 _1007_
*2151 _1008_
*2152 _397_
*2153 _1009_
*2154 _1010_
*2155 _399_
*2156 _1011_
*2157 _1013_
*2158 _400_
*2159 _1012_
*2160 _1013_
*2161 _403_
*2162 _1015_
*2163 _1017_
*2164 _404_
*2165 _1016_
*2166 _1017_
*2167 _407_
*2168 _1018_
*2169 _1019_
*2170 _410_
*2171 _1021_
*2172 _1022_
*2173 _9_[10]
*2174 _1022_
*2175 _1145_
*2176 _411_
*2177 _1023_
*2178 _1024_
*2179 _413_
*2180 _1025_
*2181 _1048_
*2182 _415_
*2183 _1027_
*2184 _1035_
*2185 _417_
*2186 _1028_
*2187 _1029_
*2188 _418_
*2189 _1029_
*2190 _1030_
*2191 _421_
*2192 _1032_
*2193 _1033_
*2194 _423_
*2195 _1034_
*2196 _1035_
*2197 _425_
*2198 _1036_
*2199 _1038_
*2200 _426_
*2201 _1037_
*2202 _1038_
*2203 _430_
*2204 _1040_
*2205 _1041_
*2206 _434_
*2207 _1044_
*2208 _1046_
*2209 _440_
*2210 _1049_
*2211 _1050_
*2212 _441_
*2213 _1050_
*2214 _1051_
*2215 _443_
*2216 _1052_
*2217 _1053_
*2218 _9_[11]
*2219 _1053_
*2220 _1146_
*2221 _444_
*2222 _1054_
*2223 _1056_
*2224 _445_
*2225 _1055_
*2226 _1056_
*2227 _449_
*2228 _1058_
*2229 _1065_
*2230 _450_
*2231 _1059_
*2232 _1060_
*2233 _453_
*2234 _1062_
*2235 _1063_
*2236 _455_
*2237 _1064_
*2238 _1065_
*2239 _457_
*2240 _1066_
*2241 _1067_
*2242 _458_
*2243 _1067_
*2244 _1068_
*2245 _462_
*2246 _1070_
*2247 _1071_
*2248 _463_
*2249 _1071_
*2250 _1072_
*2251 _464_
*2252 _1072_
*2253 _1073_
*2254 _466_
*2255 _1074_
*2256 _1075_
*2257 _469_
*2258 _1077_
*2259 _1080_
*2260 _470_
*2261 _1078_
*2262 _1079_
*2263 _471_
*2264 _1079_
*2265 _1080_
*2266 _475_
*2267 _1083_
*2268 _1084_
*2269 _9_[12]
*2270 _1084_
*2271 _1147_
*2272 _476_
*2273 _1085_
*2274 _1086_
*2275 _478_
*2276 _1087_
*2277 _1089_
*2278 _480_
*2279 _1088_
*2280 _1089_
*2281 _483_
*2282 _1091_
*2283 _1100_
*2284 _484_
*2285 _1092_
*2286 _1093_
*2287 _487_
*2288 _1095_
*2289 _1096_
*2290 _488_
*2291 _1096_
*2292 _1097_
*2293 _492_
*2294 _1098_
*2295 _1099_
*2296 _493_
*2297 _1099_
*2298 _1100_
*2299 _496_
*2300 _1102_
*2301 _1105_
*2302 _499_
*2303 _1105_
*2304 _1110_
*2305 _504_
*2306 _1109_
*2307 _1110_
*2308 _9_[13]
*2309 _1110_
*2310 _1148_
*2311 _505_
*2312 _1111_
*2313 _1112_
*2314 _506_
*2315 _1112_
*2316 _1113_
*2317 _507_
*2318 _1113_
*2319 _1121_
*2320 _508_
*2321 _1114_
*2322 _1115_
*2323 _513_
*2324 _1118_
*2325 _1119_
*2326 _515_
*2327 _1120_
*2328 _1121_
*2329 _516_
*2330 _1121_
*2331 _1124_
*2332 _517_
*2333 _1122_
*2334 _1123_
*2335 _518_
*2336 _1123_
*2337 _1124_
*2338 _9_[14]
*2339 _1124_
*2340 _1149_
*2341 _519_
*2342 _1125_
*2343 _1126_
*2344 _8_[6]
*2345 _1126_
*2346 _1150_
*2347 _560_[0]
*2348 _1167_
*2349 _1127_
*2350 y[0]
*2351 _1127_
*2352 _560_[1]
*2353 _1168_
*2354 _1128_
*2355 y[1]
*2356 _1128_
*2357 _560_[2]
*2358 _1169_
*2359 _1129_
*2360 y[2]
*2361 _1129_
*2362 _560_[3]
*2363 _1170_
*2364 _1130_
*2365 y[3]
*2366 _1130_
*2367 _560_[4]
*2368 _1171_
*2369 _1131_
*2370 y[4]
*2371 _1131_
*2372 _560_[5]
*2373 _1172_
*2374 _1132_
*2375 y[5]
*2376 _1132_
*2377 _560_[6]
*2378 _1173_
*2379 _1133_
*2380 y[6]
*2381 _1133_
*2382 _560_[7]
*2383 _1174_
*2384 _1134_
*2385 y[7]
*2386 _1134_
*2387 _560_[8]
*2388 _1143_
*2389 _1135_
*2390 y[8]
*2391 _1135_
*2392 _560_[9]
*2393 _1144_
*2394 _1136_
*2395 y[9]
*2396 _1136_
*2397 _560_[10]
*2398 _1145_
*2399 _1137_
*2400 y[10]
*2401 _1137_
*2402 _560_[11]
*2403 _1146_
*2404 _1138_
*2405 y[11]
*2406 _1138_
*2407 _560_[12]
*2408 _1147_
*2409 _1139_
*2410 y[12]
*2411 _1139_
*2412 _560_[13]
*2413 _1148_
*2414 _1140_
*2415 y[13]
*2416 _1140_
*2417 _560_[14]
*2418 _1149_
*2419 _1141_
*2420 y[14]
*2421 _1141_
*2422 _560_[15]
*2423 _1150_
*2424 _1142_
*2425 y[15]
*2426 _1142_
*2427 _9_[8]
*2428 _913_
*2429 _1143_
*2430 _9_[9]
*2431 _977_
*2432 _1144_
*2433 a[0]
*2434 _1151_
*2435 a[1]
*2436 _1152_
*2437 a[2]
*2438 _1153_
*2439 a[3]
*2440 _1154_
*2441 a[4]
*2442 _1155_
*2443 a[5]
*2444 _1156_
*2445 a[6]
*2446 _1157_
*2447 a[7]
*2448 _1158_
*2449 areg[7]
*2450 _1158_
*2451 _564_
*2452 b[0]
*2453 _1159_
*2454 breg[0]
*2455 _1159_
*2456 _562_
*2457 b[1]
*2458 _1160_
*2459 b[2]
*2460 _1161_
*2461 b[3]
*2462 _1162_
*2463 b[4]
*2464 _1163_
*2465 b[5]
*2466 _1164_
*2467 b[6]
*2468 _1165_
*2469 b[7]
*2470 _1166_
*2471 _0_[0]
*2472 _563_
*2473 _1167_
*2474 _7_[0]
*2475 _836_
*2476 _1168_
*2477 _1_[0]
*2478 _834_
*2479 _1169_
*2480 _2_[0]
*2481 _831_
*2482 _1170_
*2483 _3_[0]
*2484 _828_
*2485 _1171_
*2486 _4_[0]
*2487 _825_
*2488 _1172_
*2489 _5_[0]
*2490 _822_
*2491 _1173_
*2492 _6_[0]
*2493 _819_
*2494 _1174_
*2495 _416_
*2496 _578_
*2497 _580_
*2498 _479_
*2499 _583_
*2500 _584_
*2501 _502_
*2502 _586_
*2503 _587_
*2504 _525_
*2505 _593_
*2506 _594_
*2507 _533_
*2508 _601_
*2509 _602_
*2510 _545_
*2511 _613_
*2512 _614_
*2513 _552_