*SPEF "IEEE 1481.1999"
*DESIGN "multiplierArray"
*DATE "10:58:22 Tuesday September 29, 2020"
*VENDOR "unknown"
*PROGRAM "qrouter"
*VERSION "unknown"
*DESIGN_FLOW "qflow"
*DIVIDER /
*DELIMITER :
*BUS_DELIMITER <>
*T_UNIT 1 PS
*C_UNIT 1 FF
*R_UNIT 1 OHM
*L_UNIT 1 HENRY

*NAME_MAP
*1 clk_bF_buf11
*2 CLKBUF1_insert2
*3 _1069_
*4 _1076_
*5 _1070_
*6 _1084_
*7 _1078_
*8 _1092_
*9 _1079_
*10 _1077_
*11 _1152_
*12 _1085_
*13 _1093_
*14 _1080_
*15 _1141_
*16 _1142_
*17 _1153_
*18 clk_bF_buf12
*19 CLKBUF1_insert1
*20 _1103_
*21 _1102_
*22 _1053_
*23 _1052_
*24 _1047_
*25 _1045_
*26 _1024_
*27 _1001_
*28 _1146_
*29 _1003_
*30 _1133_
*31 _1121_
*32 _1002_
*33 _1101_
*34 _1054_
*35 clk_bF_buf13
*36 CLKBUF1_insert0
*37 _1105_
*38 _1006_
*39 _1106_
*40 _1056_
*41 _1005_
*42 _1050_
*43 _998_
*44 _1107_
*45 _1057_
*46 _1104_
*47 _1055_
*48 _1062_
*49 _1061_
*50 _1063_
*51 _1115_
*52 clk
*53 CLKBUF1_insert13
*54 CLKBUF1_insert12
*55 CLKBUF1_insert9
*56 CLKBUF1_insert10
*57 CLKBUF1_insert6
*58 CLKBUF1_insert8
*59 CLKBUF1_insert2
*60 CLKBUF1_insert4
*61 CLKBUF1_insert7
*62 CLKBUF1_insert1
*63 CLKBUF1_insert0
*64 CLKBUF1_insert3
*65 CLKBUF1_insert5
*66 CLKBUF1_insert11
*67 clk_bF_buf0
*68 CLKBUF1_insert13
*69 _1156_
*70 _1098_
*71 _1099_
*72 _1190_
*73 _1173_
*74 _1174_
*75 _1187_
*76 _1189_
*77 _1172_
*78 _1097_
*79 _1169_
*80 _1094_
*81 _1185_
*82 _1171_
*83 clk_bF_buf1
*84 CLKBUF1_insert12
*85 _1037_
*86 _1082_
*87 _1036_
*88 _1041_
*89 _1145_
*90 _1014_
*91 _1022_
*92 _1030_
*93 _1042_
*94 _1021_
*95 _1015_
*96 _1028_
*97 _1029_
*98 _1020_
*99 clk_bF_buf2
*100 CLKBUF1_insert11
*101 _1136_
*102 _1120_
*103 _1179_
*104 _1164_
*105 _1067_
*106 _1119_
*107 _1118_
*108 _1065_
*109 _1116_
*110 _1064_
*111 _1117_
*112 _1075_
*113 _1150_
*114 _1124_
*115 clk_bF_buf3
*116 CLKBUF1_insert10
*117 _1167_
*118 _1095_
*119 _1096_
*120 _1086_
*121 _1088_
*122 _1170_
*123 _1008_
*124 _1168_
*125 _1183_
*126 _1181_
*127 _1166_
*128 _1186_
*129 _1188_
*130 _1184_
*131 clk_bF_buf4
*132 CLKBUF1_insert9
*133 _1158_
*134 _1157_
*135 _1159_
*136 _1090_
*137 _1009_
*138 _1033_
*139 _1032_
*140 _1143_
*141 _1144_
*142 _1091_
*143 _1089_
*144 _1154_
*145 _1155_
*146 _1087_
*147 clk_bF_buf5
*148 CLKBUF1_insert8
*149 _1039_
*150 _1180_
*151 _1038_
*152 _1123_
*153 _1112_
*154 _1060_
*155 _1010_
*156 _1161_
*157 _1023_
*158 _1147_
*159 _1134_
*160 _1122_
*161 _1165_
*162 _1151_
*163 clk_bF_buf6
*164 CLKBUF1_insert7
*165 _1129_
*166 _1125_
*167 _1126_
*168 _1074_
*169 _1128_
*170 _1130_
*171 _1068_
*172 _1071_
*173 _1113_
*174 _1114_
*175 _1073_
*176 _1072_
*177 _1137_
*178 _1132_
*179 clk_bF_buf7
*180 CLKBUF1_insert6
*181 _1111_
*182 _1019_
*183 _1175_
*184 _1160_
*185 _995_
*186 _993_
*187 _1031_
*188 _1027_
*189 _1176_
*190 _1016_
*191 _1182_
*192 _1012_
*193 _1043_
*194 _1034_
*195 clk_bF_buf8
*196 CLKBUF1_insert5
*197 _1108_
*198 _1058_
*199 _997_
*200 _1049_
*201 _999_
*202 _1051_
*203 _1059_
*204 _1025_
*205 _1149_
*206 _1178_
*207 _1163_
*208 _1017_
*209 _1109_
*210 _1066_
*211 clk_bF_buf9
*212 CLKBUF1_insert4
*213 _1138_
*214 _1127_
*215 _1135_
*216 _1148_
*217 _1131_
*218 _1162_
*219 _1177_
*220 _1040_
*221 _1035_
*222 _1013_
*223 _1140_
*224 _1083_
*225 _1081_
*226 _1139_
*227 clk_bF_buf10
*228 CLKBUF1_insert3
*229 _1048_
*230 _1007_
*231 _1046_
*232 _1100_
*233 _1000_
*234 _1110_
*235 _992_
*236 _1044_
*237 _1018_
*238 _1026_
*239 _996_
*240 _1011_
*241 _994_
*242 _1004_
*243 \areg[7]\[7]
*244 _1008_
*245 _961_
*246 _883_
*247 _886_
*248 _884_
*249 _903_
*250 _912_
*251 _910_
*252 _896_
*253 _898_
*254 _921_
*255 _937_
*256 _947_
*257 \areg[4]\[4]
*258 _1035_
*259 _703_
*260 _719_
*261 _666_
*262 _676_
*263 _677_
*264 _667_
*265 _684_
*266 _664_
*267 _660_
*268 _658_
*269 _656_
*270 _726_
*271 \areg[3]\[3]
*272 _1039_
*273 _741_
*274 _743_
*275 _748_
*276 _728_
*277 _806_
*278 _729_
*279 _731_
*280 _757_
*281 _755_
*282 _766_
*283 _792_
*284 _782_
*285 \areg[6]\[6]
*286 _1009_
*287 _504_
*288 _513_
*289 _523_
*290 _506_
*291 _482_
*292 _473_
*293 _467_
*294 _468_
*295 _465_
*296 _594_
*297 _474_
*298 \areg[2]\[2]
*299 _1011_
*300 _847_
*301 _849_
*302 _817_
*303 _866_
*304 _856_
*305 _825_
*306 _816_
*307 _811_
*308 _810_
*309 _808_
*310 _881_
*311 \areg[1]\[1]
*312 _1017_
*313 _592_
*314 _575_
*315 _583_
*316 _549_
*317 _548_
*318 _557_
*319 _542_
*320 _538_
*321 _540_
*322 _544_
*323 \areg[5]\[5]
*324 _1032_
*325 _647_
*326 _638_
*327 _630_
*328 _612_
*329 _603_
*330 _597_
*331 _599_
*332 _596_
*333 _654_
*334 _604_
*335 \areg[0]\[0]
*336 _1024_
*337 _460_
*338 _458_
*339 _457_
*340 _459_
*341 _461_
*342 _464_
*343 _462_
*344 _463_
*345 _14_
*346 _472_
*347 _479_
*348 _481_
*349 _493_
*350 _530_
*351 _512_
*352 _16_
*353 _474_
*354 _526_
*355 _497_
*356 _495_
*357 _485_
*358 _477_
*359 _317_
*360 _815_
*361 _824_
*362 _873_
*363 _822_
*364 _855_
*365 _836_
*366 _319_
*367 _817_
*368 _869_
*369 _840_
*370 _838_
*371 _828_
*372 _820_
*373 \breg[4]\[1]
*374 _1069_
*375 _1077_
*376 _658_
*377 _664_
*378 _660_
*379 \partials[1]\[6]
*380 _1106_
*381 _838_
*382 _845_
*383 _844_
*384 _839_
*385 \partials[5]\[10]
*386 _1156_
*387 _501_
*388 _496_
*389 _502_
*390 _495_
*391 _130_
*392 _604_
*393 _650_
*394 _641_
*395 _607_
*396 _620_
*397 _184_
*398 _666_
*399 _712_
*400 _671_
*401 _675_
*402 _682_
*403 _240_
*404 _729_
*405 _737_
*406 _734_
*407 _740_
*408 _746_
*409 _258_
*410 _749_
*411 _761_
*412 _764_
*413 _753_
*414 _750_
*415 _271_
*416 _764_
*417 _779_
*418 _774_
*419 _780_
*420 _765_
*421 _379_
*422 _884_
*423 _895_
*424 _889_
*425 _892_
*426 _901_
*427 _397_
*428 _904_
*429 _905_
*430 _916_
*431 _919_
*432 _908_
*433 _410_
*434 _919_
*435 _934_
*436 _929_
*437 _920_
*438 _935_
*439 \breg[1]\[0]
*440 _1044_
*441 _540_
*442 _538_
*443 _1052_
*444 \breg[1]\[1]
*445 _1045_
*446 _542_
*447 _544_
*448 _1053_
*449 \breg[1]\[2]
*450 _1046_
*451 _550_
*452 _548_
*453 _1054_
*454 \breg[1]\[6]
*455 _1050_
*456 _583_
*457 _584_
*458 _1058_
*459 \breg[2]\[0]
*460 _1052_
*461 _881_
*462 _808_
*463 _1060_
*464 \breg[2]\[1]
*465 _1053_
*466 _811_
*467 _1061_
*468 _810_
*469 \breg[2]\[2]
*470 _1054_
*471 _816_
*472 _818_
*473 _1062_
*474 \breg[2]\[3]
*475 _1055_
*476 _1063_
*477 _825_
*478 _826_
*479 \breg[2]\[5]
*480 _1057_
*481 _847_
*482 _849_
*483 _1065_
*484 \breg[2]\[7]
*485 _1059_
*486 _866_
*487 _867_
*488 _1067_
*489 \breg[3]\[0]
*490 _1060_
*491 _1068_
*492 _728_
*493 _806_
*494 \breg[3]\[1]
*495 _1061_
*496 _730_
*497 _729_
*498 _1069_
*499 \breg[3]\[2]
*500 _1062_
*501 _743_
*502 _741_
*503 _1070_
*504 \breg[3]\[4]
*505 _1064_
*506 _757_
*507 _1072_
*508 _755_
*509 \breg[4]\[0]
*510 _1068_
*511 _1076_
*512 _656_
*513 _726_
*514 \breg[4]\[2]
*515 _1070_
*516 _1078_
*517 _668_
*518 _666_
*519 \breg[4]\[3]
*520 _1071_
*521 _1079_
*522 _676_
*523 _677_
*524 \breg[5]\[0]
*525 _1076_
*526 _1084_
*527 _654_
*528 _596_
*529 \breg[5]\[1]
*530 _1077_
*531 _599_
*532 _1085_
*533 _597_
*534 \breg[5]\[2]
*535 _1078_
*536 _1086_
*537 _603_
*538 _605_
*539 \breg[5]\[6]
*540 _1082_
*541 _1090_
*542 _638_
*543 _639_
*544 \breg[5]\[7]
*545 _1083_
*546 _647_
*547 _648_
*548 _1091_
*549 \breg[6]\[0]
*550 _1084_
*551 _1092_
*552 _594_
*553 _465_
*554 \breg[6]\[1]
*555 _1085_
*556 _468_
*557 _467_
*558 _1093_
*559 \breg[6]\[2]
*560 _1086_
*561 _475_
*562 _473_
*563 _1094_
*564 \breg[6]\[3]
*565 _1087_
*566 _483_
*567 _1095_
*568 _482_
*569 \breg[6]\[5]
*570 _1089_
*571 _506_
*572 _504_
*573 _1097_
*574 \breg[6]\[7]
*575 _1091_
*576 _524_
*577 _523_
*578 _1099_
*579 \partials[3]\[5]
*580 _1126_
*581 _659_
*582 _664_
*583 _658_
*584 _15_
*585 _473_
*586 _529_
*587 _480_
*588 _478_
*589 _19_
*590 _477_
*591 _529_
*592 _478_
*593 _481_
*594 _23_
*595 _482_
*596 _488_
*597 _490_
*598 _486_
*599 _26_
*600 _485_
*601 _488_
*602 _491_
*603 _486_
*604 _37_
*605 _497_
*606 _498_
*607 _502_
*608 _501_
*609 _45_
*610 _506_
*611 _509_
*612 _531_
*613 _507_
*614 _53_
*615 _515_
*616 _528_
*617 _963_
*618 _519_
*619 _74_
*620 _538_
*621 _547_
*622 _539_
*623 _546_
*624 _83_
*625 _549_
*626 _552_
*627 _565_
*628 _586_
*629 _89_
*630 _556_
*631 _559_
*632 _563_
*633 _574_
*634 _91_
*635 _558_
*636 _562_
*637 _559_
*638 _570_
*639 _98_
*640 _566_
*641 _570_
*642 _572_
*643 _568_
*644 _99_
*645 _567_
*646 _570_
*647 _573_
*648 _568_
*649 _105_
*650 _574_
*651 _577_
*652 _582_
*653 _591_
*654 _107_
*655 _576_
*656 _577_
*657 _581_
*658 _590_
*659 _117_
*660 _587_
*661 _589_
*662 _590_
*663 _588_
*664 _123_
*665 _596_
*666 _653_
*667 _601_
*668 _602_
*669 _136_
*670 _611_
*671 _618_
*672 _629_
*673 _614_
*674 _138_
*675 _613_
*676 _625_
*677 _617_
*678 _614_
*679 _145_
*680 _621_
*681 _623_
*682 _625_
*683 _627_
*684 _146_
*685 _622_
*686 _625_
*687 _623_
*688 _628_
*689 _152_
*690 _629_
*691 _646_
*692 _637_
*693 _632_
*694 _154_
*695 _631_
*696 _645_
*697 _636_
*698 _632_
*699 _164_
*700 _642_
*701 _644_
*702 _645_
*703 _643_
*704 _176_
*705 _657_
*706 _663_
*707 _674_
*708 _727_
*709 _177_
*710 _658_
*711 _662_
*712 _673_
*713 _665_
*714 _185_
*715 _667_
*716 _692_
*717 _695_
*718 _670_
*719 _189_
*720 _671_
*721 _675_
*722 _681_
*723 _672_
*724 _193_
*725 _676_
*726 _713_
*727 _682_
*728 _679_
*729 _194_
*730 _677_
*731 _714_
*732 _682_
*733 _678_
*734 _198_
*735 _682_
*736 _716_
*737 _683_
*738 _700_
*739 _199_
*740 _683_
*741 _690_
*742 _686_
*743 _706_
*744 _201_
*745 _685_
*746 _698_
*747 _686_
*748 _689_
*749 _208_
*750 _693_
*751 _698_
*752 _696_
*753 _701_
*754 _212_
*755 _698_
*756 _706_
*757 _699_
*758 _717_
*759 _219_
*760 _705_
*761 _968_
*762 _724_
*763 _709_
*764 _233_
*765 _720_
*766 _721_
*767 _968_
*768 _723_
*769 _239_
*770 _728_
*771 _740_
*772 _735_
*773 _736_
*774 _247_
*775 _736_
*776 _738_
*777 _763_
*778 _807_
*779 _254_
*780 _744_
*781 _745_
*782 _747_
*783 _763_
*784 _255_
*785 _746_
*786 _747_
*787 _778_
*788 _762_
*789 _256_
*790 _747_
*791 _754_
*792 _750_
*793 _774_
*794 _266_
*795 _758_
*796 _761_
*797 _764_
*798 _759_
*799 _275_
*800 _768_
*801 _769_
*802 _787_
*803 _797_
*804 _276_
*805 _769_
*806 _771_
*807 _775_
*808 _789_
*809 _282_
*810 _775_
*811 _798_
*812 _776_
*813 _781_
*814 _292_
*815 _786_
*816 _798_
*817 _787_
*818 _788_
*819 _296_
*820 _791_
*821 _794_
*822 _793_
*823 _971_
*824 _297_
*825 _792_
*826 _971_
*827 _794_
*828 _793_
*829 _300_
*830 _795_
*831 _970_
*832 _804_
*833 _796_
*834 _302_
*835 _797_
*836 _970_
*837 _801_
*838 _800_
*839 _318_
*840 _816_
*841 _821_
*842 _872_
*843 _823_
*844 _322_
*845 _820_
*846 _821_
*847 _872_
*848 _824_
*849 _326_
*850 _825_
*851 _829_
*852 _831_
*853 _833_
*854 _329_
*855 _828_
*856 _829_
*857 _834_
*858 _831_
*859 _340_
*860 _840_
*861 _841_
*862 _844_
*863 _845_
*864 _348_
*865 _849_
*866 _874_
*867 _850_
*868 _852_
*869 _356_
*870 _858_
*871 _862_
*872 _871_
*873 _972_
*874 _378_
*875 _883_
*876 _891_
*877 _895_
*878 _890_
*879 _386_
*880 _891_
*881 _962_
*882 _893_
*883 _918_
*884 _393_
*885 _899_
*886 _902_
*887 _918_
*888 _900_
*889 _394_
*890 _901_
*891 _933_
*892 _902_
*893 _917_
*894 _395_
*895 _902_
*896 _929_
*897 _905_
*898 _909_
*899 _405_
*900 _913_
*901 _916_
*902 _919_
*903 _914_
*904 _414_
*905 _923_
*906 _952_
*907 _942_
*908 _924_
*909 _415_
*910 _924_
*911 _944_
*912 _926_
*913 _930_
*914 _421_
*915 _930_
*916 _936_
*917 _953_
*918 _931_
*919 _431_
*920 _941_
*921 _942_
*922 _943_
*923 _953_
*924 _435_
*925 _946_
*926 _949_
*927 _948_
*928 _975_
*929 _436_
*930 _947_
*931 _975_
*932 _948_
*933 _949_
*934 _439_
*935 _950_
*936 _951_
*937 _974_
*938 _959_
*939 _441_
*940 _952_
*941 _974_
*942 _955_
*943 _956_
*944 \partials[0]\[1]
*945 _1001_
*946 _538_
*947 _540_
*948 \partials[0]\[2]
*949 _1002_
*950 _544_
*951 _542_
*952 \partials[0]\[3]
*953 _1003_
*954 _548_
*955 _551_
*956 \partials[0]\[4]
*957 _1004_
*958 _561_
*959 _558_
*960 \partials[0]\[5]
*961 _1005_
*962 _566_
*963 _567_
*964 \partials[0]\[6]
*965 _1006_
*966 _576_
*967 _579_
*968 \partials[0]\[7]
*969 _1007_
*970 _585_
*971 _583_
*972 \breg[0]\[0]
*973 _992_
*974 _1044_
*975 _457_
*976 \breg[0]\[1]
*977 _993_
*978 _1045_
*979 _458_
*980 \breg[0]\[2]
*981 _994_
*982 _1046_
*983 _459_
*984 \breg[0]\[3]
*985 _995_
*986 _1047_
*987 _460_
*988 \breg[1]\[3]
*989 _1047_
*990 _557_
*991 _1055_
*992 \breg[0]\[4]
*993 _996_
*994 _1048_
*995 _461_
*996 \breg[1]\[4]
*997 _1048_
*998 _564_
*999 _1056_
*1000 \breg[0]\[5]
*1001 _997_
*1002 _1049_
*1003 _462_
*1004 \breg[1]\[5]
*1005 _1049_
*1006 _1057_
*1007 _575_
*1008 \breg[0]\[6]
*1009 _998_
*1010 _1050_
*1011 _463_
*1012 \breg[0]\[7]
*1013 _999_
*1014 _464_
*1015 _1051_
*1016 \breg[1]\[7]
*1017 _1051_
*1018 _1059_
*1019 _592_
*1020 \breg[2]\[4]
*1021 _1056_
*1022 _837_
*1023 _1064_
*1024 \breg[2]\[6]
*1025 _1058_
*1026 _856_
*1027 _1066_
*1028 \breg[3]\[3]
*1029 _1063_
*1030 _748_
*1031 _1071_
*1032 \breg[3]\[5]
*1033 _1065_
*1034 _766_
*1035 _1073_
*1036 \breg[3]\[6]
*1037 _1066_
*1038 _782_
*1039 _1074_
*1040 \breg[3]\[7]
*1041 _1067_
*1042 _792_
*1043 _1075_
*1044 \breg[4]\[4]
*1045 _1072_
*1046 _684_
*1047 _1080_
*1048 \breg[4]\[5]
*1049 _1073_
*1050 _691_
*1051 _1081_
*1052 \breg[4]\[6]
*1053 _1074_
*1054 _703_
*1055 _1082_
*1056 \breg[4]\[7]
*1057 _1075_
*1058 _719_
*1059 _1083_
*1060 \breg[5]\[3]
*1061 _1079_
*1062 _612_
*1063 _1087_
*1064 \breg[5]\[4]
*1065 _1080_
*1066 _619_
*1067 _1088_
*1068 \breg[5]\[5]
*1069 _1081_
*1070 _630_
*1071 _1089_
*1072 \breg[6]\[4]
*1073 _1088_
*1074 _494_
*1075 _1096_
*1076 \breg[6]\[6]
*1077 _1090_
*1078 _513_
*1079 _1098_
*1080 \breg[7]\[0]
*1081 _1092_
*1082 _883_
*1083 _961_
*1084 \breg[7]\[1]
*1085 _1093_
*1086 _884_
*1087 _885_
*1088 \breg[7]\[2]
*1089 _1094_
*1090 _898_
*1091 _896_
*1092 \breg[7]\[4]
*1093 _1096_
*1094 _912_
*1095 _910_
*1096 \partials[1]\[2]
*1097 _1102_
*1098 _808_
*1099 _881_
*1100 \partials[1]\[3]
*1101 _1103_
*1102 _811_
*1103 _810_
*1104 \partials[1]\[4]
*1105 _1104_
*1106 _816_
*1107 _819_
*1108 \partials[1]\[5]
*1109 _1105_
*1110 _825_
*1111 _827_
*1112 \partials[1]\[7]
*1113 _1107_
*1114 _847_
*1115 _849_
*1116 \partials[1]\[8]
*1117 _1108_
*1118 _864_
*1119 _857_
*1120 \partials[1]\[9]
*1121 _1109_
*1122 _866_
*1123 _868_
*1124 \partials[2]\[3]
*1125 _1113_
*1126 _806_
*1127 _728_
*1128 \partials[2]\[4]
*1129 _1114_
*1130 _732_
*1131 _729_
*1132 \partials[2]\[5]
*1133 _1115_
*1134 _741_
*1135 _743_
*1136 \partials[2]\[6]
*1137 _1116_
*1138 _752_
*1139 _749_
*1140 \partials[2]\[7]
*1141 _1117_
*1142 _757_
*1143 _755_
*1144 \partials[2]\[8]
*1145 _1118_
*1146 _768_
*1147 _770_
*1148 \partials[2]\[9]
*1149 _1119_
*1150 _783_
*1151 _785_
*1152 \partials[3]\[4]
*1153 _1125_
*1154 _726_
*1155 _656_
*1156 \partials[3]\[6]
*1157 _1127_
*1158 _669_
*1159 _666_
*1160 \partials[3]\[7]
*1161 _1128_
*1162 _676_
*1163 _677_
*1164 \partials[3]\[8]
*1165 _1129_
*1166 _688_
*1167 _685_
*1168 \partials[3]\[9]
*1169 _1130_
*1170 _694_
*1171 _693_
*1172 \partials[3]\[10]
*1173 _1131_
*1174 _704_
*1175 _711_
*1176 \partials[3]\[11]
*1177 _1132_
*1178 _720_
*1179 _967_
*1180 \partials[4]\[5]
*1181 _1138_
*1182 _596_
*1183 _654_
*1184 \partials[4]\[6]
*1185 _1139_
*1186 _599_
*1187 _597_
*1188 \partials[4]\[7]
*1189 _1140_
*1190 _606_
*1191 _603_
*1192 \partials[4]\[8]
*1193 _1141_
*1194 _613_
*1195 _616_
*1196 \partials[4]\[9]
*1197 _1142_
*1198 _622_
*1199 _621_
*1200 \partials[4]\[10]
*1201 _1143_
*1202 _631_
*1203 _634_
*1204 \partials[4]\[11]
*1205 _1144_
*1206 _638_
*1207 _640_
*1208 \partials[4]\[12]
*1209 _1145_
*1210 _649_
*1211 _647_
*1212 \partials[5]\[6]
*1213 _1152_
*1214 _465_
*1215 _594_
*1216 \partials[5]\[7]
*1217 _1153_
*1218 _468_
*1219 _467_
*1220 \partials[5]\[8]
*1221 _1154_
*1222 _473_
*1223 _476_
*1224 \partials[5]\[9]
*1225 _1155_
*1226 _484_
*1227 _482_
*1228 \partials[5]\[11]
*1229 _1157_
*1230 _504_
*1231 _506_
*1232 \partials[5]\[12]
*1233 _1158_
*1234 _514_
*1235 _521_
*1236 \partials[5]\[13]
*1237 _1159_
*1238 _525_
*1239 _523_
*1240 \partials[6]\[7]
*1241 _1167_
*1242 _883_
*1243 _961_
*1244 \partials[6]\[8]
*1245 _1168_
*1246 _887_
*1247 _884_
*1248 \partials[6]\[9]
*1249 _1169_
*1250 _898_
*1251 _896_
*1252 \partials[6]\[10]
*1253 _1170_
*1254 _904_
*1255 _907_
*1256 \partials[6]\[11]
*1257 _1171_
*1258 _912_
*1259 _910_
*1260 \partials[6]\[12]
*1261 _1172_
*1262 _923_
*1263 _925_
*1264 \partials[6]\[13]
*1265 _1173_
*1266 _938_
*1267 _940_
*1268 _8_
*1269 _465_
*1270 _466_
*1271 _472_
*1272 _9_
*1273 _466_
*1274 _595_
*1275 _471_
*1276 _10_
*1277 _467_
*1278 _470_
*1279 _472_
*1280 _11_
*1281 _468_
*1282 _469_
*1283 _472_
*1284 _20_
*1285 _478_
*1286 _489_
*1287 _479_
*1288 _21_
*1289 _480_
*1290 _481_
*1291 _491_
*1292 _27_
*1293 _486_
*1294 _530_
*1295 _487_
*1296 _29_
*1297 _489_
*1298 _493_
*1299 _512_
*1300 _31_
*1301 _491_
*1302 _492_
*1303 _533_
*1304 _32_
*1305 _492_
*1306 _493_
*1307 _511_
*1308 _33_
*1309 _493_
*1310 _500_
*1311 _503_
*1312 _34_
*1313 _494_
*1314 _495_
*1315 _497_
*1316 _35_
*1317 _495_
*1318 _499_
*1319 _510_
*1320 _38_
*1321 _498_
*1322 _510_
*1323 _499_
*1324 _39_
*1325 _499_
*1326 _500_
*1327 _532_
*1328 _40_
*1329 _501_
*1330 _509_
*1331 _503_
*1332 _43_
*1333 _504_
*1334 _505_
*1335 _509_
*1336 _44_
*1337 _505_
*1338 _507_
*1339 _531_
*1340 _46_
*1341 _507_
*1342 _510_
*1343 _508_
*1344 _47_
*1345 _509_
*1346 _511_
*1347 _534_
*1348 _48_
*1349 _510_
*1350 _512_
*1351 _511_
*1352 _49_
*1353 _511_
*1354 _515_
*1355 _516_
*1356 _50_
*1357 _512_
*1358 _515_
*1359 _516_
*1360 _51_
*1361 _513_
*1362 _514_
*1363 _520_
*1364 _52_
*1365 _514_
*1366 _515_
*1367 _517_
*1368 _55_
*1369 _517_
*1370 _518_
*1371 _534_
*1372 _58_
*1373 _521_
*1374 _522_
*1375 _536_
*1376 _59_
*1377 _522_
*1378 _528_
*1379 _963_
*1380 _60_
*1381 _523_
*1382 _527_
*1383 _964_
*1384 _64_
*1385 _527_
*1386 _535_
*1387 _528_
*1388 _72_
*1389 _535_
*1390 _963_
*1391 _536_
*1392 _77_
*1393 _542_
*1394 _543_
*1395 _547_
*1396 _79_
*1397 _544_
*1398 _545_
*1399 _547_
*1400 _81_
*1401 _547_
*1402 _554_
*1403 _556_
*1404 _82_
*1405 _548_
*1406 _555_
*1407 _553_
*1408 _86_
*1409 _552_
*1410 _553_
*1411 _556_
*1412 _90_
*1413 _557_
*1414 _558_
*1415 _560_
*1416 _93_
*1417 _561_
*1418 _563_
*1419 _571_
*1420 _97_
*1421 _565_
*1422 _566_
*1423 _567_
*1424 _106_
*1425 _575_
*1426 _578_
*1427 _576_
*1428 _109_
*1429 _579_
*1430 _580_
*1431 _589_
*1432 _113_
*1433 _583_
*1434 _589_
*1435 _587_
*1436 _120_
*1437 _591_
*1438 _593_
*1439 _965_
*1440 _121_
*1441 _592_
*1442 _965_
*1443 _593_
*1444 _124_
*1445 _597_
*1446 _598_
*1447 _602_
*1448 _126_
*1449 _599_
*1450 _600_
*1451 _602_
*1452 _128_
*1453 _602_
*1454 _611_
*1455 _609_
*1456 _129_
*1457 _603_
*1458 _608_
*1459 _610_
*1460 _133_
*1461 _607_
*1462 _608_
*1463 _611_
*1464 _137_
*1465 _612_
*1466 _613_
*1467 _615_
*1468 _140_
*1469 _616_
*1470 _618_
*1471 _626_
*1472 _144_
*1473 _620_
*1474 _621_
*1475 _622_
*1476 _153_
*1477 _630_
*1478 _633_
*1479 _631_
*1480 _156_
*1481 _634_
*1482 _635_
*1483 _644_
*1484 _160_
*1485 _638_
*1486 _644_
*1487 _642_
*1488 _167_
*1489 _646_
*1490 _966_
*1491 _652_
*1492 _168_
*1493 _647_
*1494 _966_
*1495 _651_
*1496 _172_
*1497 _651_
*1498 _966_
*1499 _652_
*1500 _175_
*1501 _656_
*1502 _657_
*1503 _665_
*1504 _180_
*1505 _661_
*1506 _662_
*1507 _674_
*1508 _183_
*1509 _665_
*1510 _672_
*1511 _715_
*1512 _188_
*1513 _670_
*1514 _712_
*1515 _671_
*1516 _191_
*1517 _674_
*1518 _675_
*1519 _681_
*1520 _196_
*1521 _679_
*1522 _681_
*1523 _680_
*1524 _197_
*1525 _681_
*1526 _683_
*1527 _700_
*1528 _200_
*1529 _684_
*1530 _687_
*1531 _685_
*1532 _203_
*1533 _688_
*1534 _701_
*1535 _690_
*1536 _206_
*1537 _691_
*1538 _695_
*1539 _692_
*1540 _210_
*1541 _695_
*1542 _698_
*1543 _696_
*1544 _211_
*1545 _696_
*1546 _701_
*1547 _697_
*1548 _215_
*1549 _701_
*1550 _702_
*1551 _718_
*1552 _216_
*1553 _702_
*1554 _705_
*1555 _706_
*1556 _217_
*1557 _703_
*1558 _704_
*1559 _710_
*1560 _218_
*1561 _704_
*1562 _705_
*1563 _707_
*1564 _221_
*1565 _707_
*1566 _708_
*1567 _718_
*1568 _224_
*1569 _711_
*1570 _722_
*1571 _721_
*1572 _232_
*1573 _719_
*1574 _720_
*1575 _967_
*1576 _235_
*1577 _722_
*1578 _968_
*1579 _724_
*1580 _244_
*1581 _733_
*1582 _734_
*1583 _737_
*1584 _245_
*1585 _734_
*1586 _740_
*1587 _735_
*1588 _246_
*1589 _735_
*1590 _747_
*1591 _739_
*1592 _248_
*1593 _737_
*1594 _738_
*1595 _763_
*1596 _251_
*1597 _741_
*1598 _742_
*1599 _746_
*1600 _253_
*1601 _743_
*1602 _746_
*1603 _744_
*1604 _257_
*1605 _748_
*1606 _749_
*1607 _751_
*1608 _260_
*1609 _752_
*1610 _760_
*1611 _754_
*1612 _263_
*1613 _755_
*1614 _756_
*1615 _760_
*1616 _265_
*1617 _757_
*1618 _758_
*1619 _760_
*1620 _267_
*1621 _760_
*1622 _762_
*1623 _773_
*1624 _269_
*1625 _762_
*1626 _772_
*1627 _799_
*1628 _270_
*1629 _763_
*1630 _765_
*1631 _780_
*1632 _272_
*1633 _765_
*1634 _772_
*1635 _799_
*1636 _274_
*1637 _767_
*1638 _768_
*1639 _770_
*1640 _277_
*1641 _770_
*1642 _771_
*1643 _775_
*1644 _278_
*1645 _771_
*1646 _772_
*1647 _802_
*1648 _279_
*1649 _772_
*1650 _789_
*1651 _777_
*1652 _280_
*1653 _773_
*1654 _774_
*1655 _779_
*1656 _285_
*1657 _779_
*1658 _781_
*1659 _803_
*1660 _286_
*1661 _780_
*1662 _781_
*1663 _803_
*1664 _288_
*1665 _782_
*1666 _785_
*1667 _783_
*1668 _289_
*1669 _783_
*1670 _784_
*1671 _797_
*1672 _291_
*1673 _785_
*1674 _786_
*1675 _797_
*1676 _294_
*1677 _788_
*1678 _789_
*1679 _802_
*1680 _304_
*1681 _799_
*1682 _800_
*1683 _970_
*1684 _311_
*1685 _808_
*1686 _809_
*1687 _815_
*1688 _312_
*1689 _809_
*1690 _882_
*1691 _814_
*1692 _313_
*1693 _810_
*1694 _815_
*1695 _813_
*1696 _314_
*1697 _811_
*1698 _815_
*1699 _812_
*1700 _323_
*1701 _821_
*1702 _822_
*1703 _832_
*1704 _324_
*1705 _823_
*1706 _824_
*1707 _834_
*1708 _330_
*1709 _829_
*1710 _873_
*1711 _830_
*1712 _332_
*1713 _832_
*1714 _836_
*1715 _855_
*1716 _334_
*1717 _834_
*1718 _876_
*1719 _835_
*1720 _335_
*1721 _835_
*1722 _854_
*1723 _836_
*1724 _336_
*1725 _836_
*1726 _843_
*1727 _846_
*1728 _337_
*1729 _837_
*1730 _840_
*1731 _838_
*1732 _338_
*1733 _838_
*1734 _842_
*1735 _853_
*1736 _341_
*1737 _841_
*1738 _842_
*1739 _853_
*1740 _342_
*1741 _842_
*1742 _843_
*1743 _875_
*1744 _343_
*1745 _844_
*1746 _852_
*1747 _846_
*1748 _346_
*1749 _847_
*1750 _848_
*1751 _852_
*1752 _347_
*1753 _848_
*1754 _874_
*1755 _850_
*1756 _349_
*1757 _850_
*1758 _853_
*1759 _851_
*1760 _350_
*1761 _852_
*1762 _877_
*1763 _854_
*1764 _351_
*1765 _853_
*1766 _854_
*1767 _855_
*1768 _352_
*1769 _854_
*1770 _859_
*1771 _858_
*1772 _353_
*1773 _855_
*1774 _859_
*1775 _858_
*1776 _354_
*1777 _856_
*1778 _863_
*1779 _857_
*1780 _355_
*1781 _857_
*1782 _860_
*1783 _858_
*1784 _358_
*1785 _860_
*1786 _877_
*1787 _861_
*1788 _361_
*1789 _864_
*1790 _865_
*1791 _879_
*1792 _362_
*1793 _865_
*1794 _972_
*1795 _871_
*1796 _363_
*1797 _866_
*1798 _870_
*1799 _973_
*1800 _367_
*1801 _870_
*1802 _878_
*1803 _871_
*1804 _375_
*1805 _878_
*1806 _972_
*1807 _879_
*1808 _383_
*1809 _888_
*1810 _889_
*1811 _892_
*1812 _384_
*1813 _889_
*1814 _890_
*1815 _895_
*1816 _385_
*1817 _890_
*1818 _894_
*1819 _902_
*1820 _387_
*1821 _892_
*1822 _893_
*1823 _918_
*1824 _390_
*1825 _896_
*1826 _901_
*1827 _897_
*1828 _392_
*1829 _898_
*1830 _899_
*1831 _901_
*1832 _396_
*1833 _903_
*1834 _906_
*1835 _904_
*1836 _399_
*1837 _907_
*1838 _915_
*1839 _909_
*1840 _402_
*1841 _910_
*1842 _911_
*1843 _915_
*1844 _404_
*1845 _912_
*1846 _913_
*1847 _915_
*1848 _406_
*1849 _915_
*1850 _917_
*1851 _928_
*1852 _408_
*1853 _917_
*1854 _927_
*1855 _954_
*1856 _409_
*1857 _918_
*1858 _935_
*1859 _920_
*1860 _411_
*1861 _920_
*1862 _927_
*1863 _954_
*1864 _413_
*1865 _922_
*1866 _923_
*1867 _925_
*1868 _416_
*1869 _925_
*1870 _930_
*1871 _926_
*1872 _417_
*1873 _926_
*1874 _957_
*1875 _927_
*1876 _418_
*1877 _927_
*1878 _944_
*1879 _932_
*1880 _419_
*1881 _928_
*1882 _934_
*1883 _929_
*1884 _424_
*1885 _934_
*1886 _936_
*1887 _958_
*1888 _425_
*1889 _935_
*1890 _936_
*1891 _958_
*1892 _427_
*1893 _937_
*1894 _938_
*1895 _940_
*1896 _428_
*1897 _938_
*1898 _952_
*1899 _939_
*1900 _430_
*1901 _940_
*1902 _952_
*1903 _941_
*1904 _433_
*1905 _943_
*1906 _944_
*1907 _957_
*1908 _443_
*1909 _954_
*1910 _955_
*1911 _974_
*1912 _0_[0]
*1913 _457_
*1914 _1000_
*1915 \partials[0]\[0]
*1916 _1000_
*1917 _1100_
*1918 _0_[1]
*1919 _458_
*1920 _1001_
*1921 _0_[2]
*1922 _459_
*1923 _1002_
*1924 _0_[3]
*1925 _460_
*1926 _1003_
*1927 _0_[4]
*1928 _461_
*1929 _1004_
*1930 _0_[5]
*1931 _462_
*1932 _1005_
*1933 _0_[6]
*1934 _463_
*1935 _1006_
*1936 _0_[7]
*1937 _464_
*1938 _1007_
*1939 \areg[6]\[7]
*1940 _1010_
*1941 _1008_
*1942 \areg[5]\[6]
*1943 _1033_
*1944 _1009_
*1945 \areg[5]\[7]
*1946 _1034_
*1947 _1010_
*1948 \areg[1]\[2]
*1949 _1018_
*1950 _1011_
*1951 \areg[1]\[3]
*1952 _1019_
*1953 _1012_
*1954 \areg[2]\[3]
*1955 _1012_
*1956 _1039_
*1957 \areg[1]\[4]
*1958 _1020_
*1959 _1013_
*1960 \areg[2]\[4]
*1961 _1013_
*1962 _1040_
*1963 \areg[1]\[5]
*1964 _1021_
*1965 _1014_
*1966 \areg[2]\[5]
*1967 _1014_
*1968 _1041_
*1969 \areg[1]\[6]
*1970 _1022_
*1971 _1015_
*1972 \areg[2]\[6]
*1973 _1015_
*1974 _1042_
*1975 \areg[1]\[7]
*1976 _1023_
*1977 _1016_
*1978 \areg[2]\[7]
*1979 _1016_
*1980 _1043_
*1981 \areg[0]\[1]
*1982 _1025_
*1983 _1017_
*1984 \areg[0]\[2]
*1985 _1026_
*1986 _1018_
*1987 \areg[0]\[3]
*1988 _1027_
*1989 _1019_
*1990 \areg[0]\[4]
*1991 _1028_
*1992 _1020_
*1993 \areg[0]\[5]
*1994 _1029_
*1995 _1021_
*1996 \areg[0]\[6]
*1997 _1030_
*1998 _1022_
*1999 \areg[0]\[7]
*2000 _1031_
*2001 _1023_
*2002 a[0]
*2003 _1024_
*2004 a[1]
*2005 _1025_
*2006 a[2]
*2007 _1026_
*2008 a[3]
*2009 _1027_
*2010 a[4]
*2011 _1028_
*2012 a[5]
*2013 _1029_
*2014 a[6]
*2015 _1030_
*2016 a[7]
*2017 _1031_
*2018 \areg[4]\[5]
*2019 _1036_
*2020 _1032_
*2021 \areg[4]\[6]
*2022 _1037_
*2023 _1033_
*2024 \areg[4]\[7]
*2025 _1038_
*2026 _1034_
*2027 \areg[3]\[4]
*2028 _1040_
*2029 _1035_
*2030 \areg[3]\[5]
*2031 _1041_
*2032 _1036_
*2033 \areg[3]\[6]
*2034 _1042_
*2035 _1037_
*2036 \areg[3]\[7]
*2037 _1043_
*2038 _1038_
*2039 \breg[7]\[3]
*2040 _1095_
*2041 _903_
*2042 \breg[7]\[5]
*2043 _1097_
*2044 _921_
*2045 \breg[7]\[6]
*2046 _1098_
*2047 _937_
*2048 \breg[7]\[7]
*2049 _1099_
*2050 _947_
*2051 \partials[1]\[0]
*2052 _1100_
*2053 _1110_
*2054 _1_[1]
*2055 _541_
*2056 _1101_
*2057 \partials[1]\[1]
*2058 _1101_
*2059 _1111_
*2060 _1_[2]
*2061 _546_
*2062 _1102_
*2063 _1_[3]
*2064 _554_
*2065 _1103_
*2066 _1_[4]
*2067 _559_
*2068 _1104_
*2069 _1_[5]
*2070 _569_
*2071 _1105_
*2072 _1_[6]
*2073 _577_
*2074 _1106_
*2075 _1_[7]
*2076 _588_
*2077 _1107_
*2078 _1_[8]
*2079 _593_
*2080 _1108_
*2081 _1_[9]
*2082 _965_
*2083 _1109_
*2084 \partials[2]\[0]
*2085 _1110_
*2086 _1121_
*2087 \partials[2]\[1]
*2088 _1111_
*2089 _1122_
*2090 _2_[2]
*2091 _882_
*2092 _1112_
*2093 \partials[2]\[2]
*2094 _1112_
*2095 _1123_
*2096 _2_[3]
*2097 _814_
*2098 _1113_
*2099 _2_[4]
*2100 _822_
*2101 _1114_
*2102 _2_[5]
*2103 _830_
*2104 _1115_
*2105 _2_[6]
*2106 _843_
*2107 _1116_
*2108 _2_[7]
*2109 _851_
*2110 _1117_
*2111 _2_[8]
*2112 _862_
*2113 _1118_
*2114 _2_[9]
*2115 _880_
*2116 _1119_
*2117 _2_[10]
*2118 _973_
*2119 _1120_
*2120 \partials[2]\[10]
*2121 _1120_
*2122 _791_
*2123 \partials[3]\[0]
*2124 _1121_
*2125 _1133_
*2126 \partials[3]\[1]
*2127 _1122_
*2128 _1134_
*2129 \partials[3]\[2]
*2130 _1123_
*2131 _1135_
*2132 _3_[3]
*2133 _807_
*2134 _1124_
*2135 \partials[3]\[3]
*2136 _1124_
*2137 _1136_
*2138 _3_[4]
*2139 _739_
*2140 _1125_
*2141 _3_[5]
*2142 _745_
*2143 _1126_
*2144 _3_[6]
*2145 _750_
*2146 _1127_
*2147 _3_[7]
*2148 _759_
*2149 _1128_
*2150 _3_[8]
*2151 _777_
*2152 _1129_
*2153 _3_[9]
*2154 _790_
*2155 _1130_
*2156 _3_[10]
*2157 _805_
*2158 _1131_
*2159 _3_[11]
*2160 _971_
*2161 _1132_
*2162 \partials[4]\[0]
*2163 _1133_
*2164 _1146_
*2165 \partials[4]\[1]
*2166 _1134_
*2167 _1147_
*2168 \partials[4]\[2]
*2169 _1135_
*2170 _1148_
*2171 \partials[4]\[3]
*2172 _1136_
*2173 _1149_
*2174 _4_[4]
*2175 _727_
*2176 _1137_
*2177 \partials[4]\[4]
*2178 _1137_
*2179 _1150_
*2180 _4_[5]
*2181 _663_
*2182 _1138_
*2183 _4_[6]
*2184 _672_
*2185 _1139_
*2186 _4_[7]
*2187 _680_
*2188 _1140_
*2189 _4_[8]
*2190 _686_
*2191 _1141_
*2192 _4_[9]
*2193 _697_
*2194 _1142_
*2195 _4_[10]
*2196 _709_
*2197 _1143_
*2198 _4_[11]
*2199 _725_
*2200 _1144_
*2201 _4_[12]
*2202 _969_
*2203 _1145_
*2204 \partials[5]\[0]
*2205 _1146_
*2206 _1160_
*2207 \partials[5]\[1]
*2208 _1147_
*2209 _1161_
*2210 \partials[5]\[2]
*2211 _1148_
*2212 _1162_
*2213 \partials[5]\[3]
*2214 _1149_
*2215 _1163_
*2216 \partials[5]\[4]
*2217 _1150_
*2218 _1164_
*2219 _5_[5]
*2220 _655_
*2221 _1151_
*2222 \partials[5]\[5]
*2223 _1151_
*2224 _1165_
*2225 _5_[6]
*2226 _601_
*2227 _1152_
*2228 _5_[7]
*2229 _609_
*2230 _1153_
*2231 _5_[8]
*2232 _614_
*2233 _1154_
*2234 _5_[9]
*2235 _624_
*2236 _1155_
*2237 _5_[10]
*2238 _632_
*2239 _1156_
*2240 _5_[11]
*2241 _643_
*2242 _1157_
*2243 _5_[12]
*2244 _652_
*2245 _1158_
*2246 _5_[13]
*2247 _966_
*2248 _1159_
*2249 \partials[6]\[0]
*2250 _1160_
*2251 _1175_
*2252 \partials[6]\[1]
*2253 _1161_
*2254 _1176_
*2255 \partials[6]\[2]
*2256 _1162_
*2257 _1177_
*2258 \partials[6]\[3]
*2259 _1163_
*2260 _1178_
*2261 \partials[6]\[4]
*2262 _1164_
*2263 _1179_
*2264 \partials[6]\[5]
*2265 _1165_
*2266 _1180_
*2267 _6_[6]
*2268 _595_
*2269 _1166_
*2270 \partials[6]\[6]
*2271 _1166_
*2272 _1181_
*2273 _6_[7]
*2274 _471_
*2275 _1167_
*2276 _6_[8]
*2277 _479_
*2278 _1168_
*2279 _6_[9]
*2280 _487_
*2281 _1169_
*2282 _6_[10]
*2283 _500_
*2284 _1170_
*2285 _6_[11]
*2286 _508_
*2287 _1171_
*2288 _6_[12]
*2289 _519_
*2290 _1172_
*2291 _6_[13]
*2292 _537_
*2293 _1173_
*2294 _6_[14]
*2295 _964_
*2296 _1174_
*2297 \partials[6]\[14]
*2298 _1174_
*2299 _946_
*2300 _456_[0]
*2301 _1175_
*2302 _976_
*2303 _456_[1]
*2304 _1176_
*2305 _977_
*2306 _456_[2]
*2307 _1177_
*2308 _978_
*2309 _456_[3]
*2310 _1178_
*2311 _979_
*2312 _456_[4]
*2313 _1179_
*2314 _980_
*2315 _456_[5]
*2316 _1180_
*2317 _981_
*2318 _456_[6]
*2319 _1181_
*2320 _982_
*2321 _7_[7]
*2322 _962_
*2323 _1182_
*2324 _456_[7]
*2325 _1182_
*2326 _983_
*2327 _7_[8]
*2328 _894_
*2329 _1183_
*2330 _456_[8]
*2331 _1183_
*2332 _984_
*2333 _7_[9]
*2334 _900_
*2335 _1184_
*2336 _456_[9]
*2337 _1184_
*2338 _985_
*2339 _7_[10]
*2340 _905_
*2341 _1185_
*2342 _456_[10]
*2343 _1185_
*2344 _986_
*2345 _7_[11]
*2346 _914_
*2347 _1186_
*2348 _456_[11]
*2349 _1186_
*2350 _987_