*SPEF "IEEE 1481.1999"
*DESIGN "multiplierCarry"
*DATE "11:20:51 Tuesday September 29, 2020"
*VENDOR "unknown"
*PROGRAM "qrouter"
*VERSION "unknown"
*DESIGN_FLOW "qflow"
*DIVIDER /
*DELIMITER :
*BUS_DELIMITER <>
*T_UNIT 1 PS
*C_UNIT 1 FF
*R_UNIT 1 OHM
*L_UNIT 1 HENRY

*NAME_MAP
*1 _57_
*2 _627_
*3 _629_
*4 _673_
*5 _952_
*6 _953_
*7 _979_
*8 _866_
*9 _942_
*10 _914_
*11 _977_
*12 _795_
*13 _899_
*14 areg[0]
*15 _1147_
*16 _590_
*17 _587_
*18 _549_
*19 _681_
*20 _628_
*21 _553_
*22 _565_
*23 _544_
*24 _541_
*25 _625_
*26 areg[1]
*27 _1148_
*28 _552_
*29 _542_
*30 _548_
*31 _560_
*32 _624_
*33 _634_
*34 _678_
*35 _675_
*36 _685_
*37 _545_
*38 _496_
*39 _536_
*40 _974_
*41 _953_
*42 _952_
*43 _979_
*44 _880_
*45 _937_
*46 _924_
*47 _827_
*48 _538_
*49 _743_
*50 _507_
*51 _547_
*52 _550_
*53 _584_
*54 _640_
*55 _619_
*56 _667_
*57 _880_
*58 _933_
*59 _816_
*60 _848_
*61 _937_
*62 _90_
*63 _660_
*64 _969_
*65 _949_
*66 _914_
*67 _942_
*68 _870_
*69 _848_
*70 _816_
*71 _664_
*72 _661_
*73 _747_
*74 _485_
*75 _533_
*76 _762_
*77 _770_
*78 _773_
*79 _761_
*80 _752_
*81 _747_
*82 _743_
*83 _535_
*84 _1043_
*85 _497_
*86 _537_
*87 _661_
*88 _538_
*89 _838_
*90 _577_
*91 _758_
*92 _572_
*93 _566_
*94 _765_
*95 _613_
*96 clk_bF_buf2
*97 CLKBUF1_insert4
*98 _1122_
*99 _1131_
*100 _1120_
*101 _1143_
*102 _1119_
*103 _1136_
*104 _1135_
*105 _1115_
*106 clk_bF_buf3
*107 CLKBUF1_insert3
*108 _1134_
*109 _1142_
*110 _1141_
*111 _1133_
*112 _1117_
*113 _1118_
*114 _1140_
*115 _1132_
*116 clk_bF_buf4
*117 CLKBUF1_insert2
*118 _1130_
*119 _1111_
*120 _1114_
*121 _1157_
*122 _1129_
*123 _1113_
*124 _1156_
*125 _1116_
*126 clk_bF_buf5
*127 CLKBUF1_insert1
*128 _1145_
*129 _1146_
*130 _1139_
*131 _1155_
*132 _1121_
*133 _1123_
*134 _1124_
*135 _1144_
*136 clk_bF_buf6
*137 CLKBUF1_insert0
*138 _1137_
*139 _1153_
*140 _1138_
*141 _1162_
*142 _1150_
*143 _1154_
*144 _1161_
*145 _1152_
*146 breg[6]
*147 _1161_
*148 _625_
*149 _678_
*150 _628_
*151 _791_
*152 _861_
*153 _910_
*154 _990_
*155 _944_
*156 breg[7]
*157 _1162_
*158 _990_
*159 _909_
*160 _948_
*161 _675_
*162 _677_
*163 _860_
*164 _685_
*165 _681_
*166 _494_
*167 _534_
*168 _984_
*169 _977_
*170 _965_
*171 _961_
*172 _933_
*173 _890_
*174 _838_
*175 _535_
*176 _530_
*177 _570_
*178 _601_
*179 _572_
*180 _770_
*181 _758_
*182 _640_
*183 _622_
*184 _673_
*185 _584_
*186 _6_
*187 _576_
*188 _899_
*189 _795_
*190 _670_
*191 _619_
*192 _581_
*193 _773_
*194 _577_
*195 _761_
*196 _19_
*197 _589_
*198 _591_
*199 _622_
*200 _670_
*201 _805_
*202 _870_
*203 _924_
*204 _965_
*205 _961_
*206 _58_
*207 _628_
*208 _686_
*209 _792_
*210 _859_
*211 _794_
*212 _629_
*213 _631_
*214 _636_
*215 _635_
*216 clk
*217 CLKBUF1_insert0
*218 CLKBUF1_insert1
*219 CLKBUF1_insert4
*220 CLKBUF1_insert3
*221 CLKBUF1_insert5
*222 CLKBUF1_insert2
*223 CLKBUF1_insert6
*224 clk_bF_buf0
*225 CLKBUF1_insert6
*226 _1149_
*227 _1160_
*228 _1159_
*229 _1147_
*230 _1158_
*231 _1125_
*232 _1151_
*233 clk_bF_buf1
*234 CLKBUF1_insert5
*235 _1109_
*236 _1110_
*237 _1148_
*238 _1112_
*239 _1128_
*240 _1127_
*241 _1126_
*242 _42_
*243 _612_
*244 _945_
*245 _866_
*246 _805_
*247 _667_
*248 _616_
*249 _752_
*250 _613_
*251 _325_
*252 _898_
*253 _931_
*254 _1029_
*255 _1030_
*256 _932_
*257 _962_
*258 _964_
*259 _10_
*260 _580_
*261 _581_
*262 _601_
*263 _616_
*264 _664_
*265 _827_
*266 _890_
*267 _308_
*268 _880_
*269 _881_
*270 _883_
*271 _1020_
*272 _1018_
*273 _888_
*274 breg[5]
*275 _1160_
*276 _590_
*277 _627_
*278 _634_
*279 _624_
*280 _587_
*281 _508_
*282 _548_
*283 _762_
*284 _765_
*285 _550_
*286 _591_
*287 _629_
*288 _515_
*289 _555_
*290 _583_
*291 _563_
*292 _719_
*293 _601_
*294 _556_
*295 _23_
*296 _593_
*297 _594_
*298 _603_
*299 _621_
*300 _640_
*301 _599_
*302 _217_
*303 _788_
*304 _848_
*305 _823_
*306 _850_
*307 _822_
*308 _830_
*309 _357_
*310 _930_
*311 _1030_
*312 _931_
*313 _932_
*314 _1029_
*315 _471_
*316 _1066_
*317 _1067_
*318 _1073_
*319 _1074_
*320 _1070_
*321 _479_
*322 _1075_
*323 _1079_
*324 _1083_
*325 _1082_
*326 _1076_
*327 _488_
*328 _1084_
*329 _1085_
*330 _1090_
*331 _1092_
*332 _1088_
*333 areg[2]
*334 _1149_
*335 _860_
*336 _791_
*337 _570_
*338 _540_
*339 breg[2]
*340 _1157_
*341 _580_
*342 _553_
*343 _540_
*344 _542_
*345 breg[3]
*346 _1158_
*347 _544_
*348 _547_
*349 _541_
*350 _552_
*351 breg[4]
*352 _1159_
*353 _545_
*354 _589_
*355 _549_
*356 _560_
*357 _500_
*358 _540_
*359 _583_
*360 _719_
*361 _558_
*362 _557_
*363 _505_
*364 _545_
*365 _588_
*366 _597_
*367 _546_
*368 _593_
*369 _526_
*370 _566_
*371 _571_
*372 _567_
*373 _992_
*374 _763_
*375 _11_
*376 _581_
*377 _582_
*378 _726_
*379 _650_
*380 _609_
*381 _20_
*382 _590_
*383 _593_
*384 _596_
*385 _591_
*386 _683_
*387 _46_
*388 _616_
*389 _710_
*390 _731_
*391 _657_
*392 _617_
*393 _49_
*394 _619_
*395 _620_
*396 _648_
*397 _701_
*398 _652_
*399 _52_
*400 _622_
*401 _638_
*402 _643_
*403 _692_
*404 _623_
*405 _61_
*406 _631_
*407 _638_
*408 _632_
*409 _642_
*410 _672_
*411 _97_
*412 _667_
*413 _788_
*414 _668_
*415 _712_
*416 _708_
*417 _100_
*418 _670_
*419 _703_
*420 _671_
*421 _699_
*422 _789_
*423 _103_
*424 _673_
*425 _690_
*426 _674_
*427 _694_
*428 _790_
*429 _216_
*430 _787_
*431 _834_
*432 _892_
*433 _833_
*434 _843_
*435 _219_
*436 _790_
*437 _899_
*438 _857_
*439 _800_
*440 _808_
*441 _221_
*442 _792_
*443 _856_
*444 _799_
*445 _802_
*446 _793_
*447 _224_
*448 _795_
*449 _803_
*450 _796_
*451 _798_
*452 _858_
*453 _234_
*454 _805_
*455 _854_
*456 _814_
*457 _806_
*458 _809_
*459 _245_
*460 _816_
*461 _825_
*462 _817_
*463 _820_
*464 _886_
*465 _256_
*466 _827_
*467 _836_
*468 _828_
*469 _831_
*470 _892_
*471 _282_
*472 _854_
*473 _879_
*474 _882_
*475 _898_
*476 _855_
*477 _286_
*478 _858_
*479 _874_
*480 _873_
*481 _869_
*482 _868_
*483 _287_
*484 _859_
*485 _906_
*486 _908_
*487 _863_
*488 _864_
*489 _295_
*490 _867_
*491 _873_
*492 _869_
*493 _868_
*494 _874_
*495 _304_
*496 _876_
*497 _935_
*498 _884_
*499 _877_
*500 _887_
*501 _335_
*502 _908_
*503 _946_
*504 _945_
*505 _912_
*506 _913_
*507 _349_
*508 _922_
*509 _943_
*510 _942_
*511 _923_
*512 _927_
*513 _351_
*514 _924_
*515 _925_
*516 _929_
*517 _964_
*518 _962_
*519 _399_
*520 _974_
*521 _987_
*522 _986_
*523 _975_
*524 _985_
*525 _495_
*526 _535_
*527 _1006_
*528 _742_
*529 _785_
*530 _499_
*531 _539_
*532 _840_
*533 _738_
*534 _1007_
*535 _170_
*536 _740_
*537 _741_
*538 _1007_
*539 _840_
*540 _148_
*541 _718_
*542 _1008_
*543 _738_
*544 _840_
*545 _498_
*546 _538_
*547 _741_
*548 _1008_
*549 _539_
*550 _268_
*551 _839_
*552 _1017_
*553 _1016_
*554 _847_
*555 _279_
*556 _851_
*557 _1020_
*558 _1018_
*559 _885_
*560 _318_
*561 _890_
*562 _895_
*563 _891_
*564 _1022_
*565 _366_
*566 _939_
*567 _1035_
*568 _941_
*569 _1028_
*570 _360_
*571 _933_
*572 _940_
*573 _934_
*574 _1031_
*575 _401_
*576 _976_
*577 _1039_
*578 _978_
*579 _982_
*580 _402_
*581 _977_
*582 _978_
*583 _982_
*584 _1039_
*585 \partialsco[7]\[6]
*586 _991_
*587 _1042_
*588 _1041_
*589 _1146_
*590 _525_
*591 _565_
*592 _1043_
*593 _679_
*594 _566_
*595 _462_
*596 _1056_
*597 _1060_
*598 _1061_
*599 _1058_
*600 psreg[10]
*601 _1135_
*602 _1061_
*603 _1060_
*604 _1057_
*605 pcreg[3]
*606 _1143_
*607 _1067_
*608 _1066_
*609 _1064_
*610 psreg[12]
*611 _1137_
*612 _1075_
*613 _1072_
*614 _1071_
*615 psreg[13]
*616 _1138_
*617 _1081_
*618 _1084_
*619 _1080_
*620 psreg[14]
*621 _1139_
*622 _1091_
*623 _1089_
*624 _1087_
*625 areg[3]
*626 _1150_
*627 _909_
*628 _861_
*629 _576_
*630 areg[4]
*631 _1151_
*632 _612_
*633 _948_
*634 _910_
*635 _501_
*636 _541_
*637 _561_
*638 _543_
*639 _571_
*640 _504_
*641 _544_
*642 _593_
*643 _546_
*644 _568_
*645 _509_
*646 _549_
*647 _586_
*648 _555_
*649 _550_
*650 _511_
*651 _551_
*652 _557_
*653 _720_
*654 _583_
*655 _512_
*656 _552_
*657 _559_
*658 _555_
*659 _592_
*660 _513_
*661 _553_
*662 _562_
*663 _765_
*664 _554_
*665 _522_
*666 _562_
*667 _563_
*668 _719_
*669 _602_
*670 _524_
*671 _564_
*672 _567_
*673 _571_
*674 _568_
*675 _529_
*676 _569_
*677 _759_
*678 _573_
*679 _721_
*680 _7_
*681 _577_
*682 _755_
*683 _578_
*684 _724_
*685 _12_
*686 _582_
*687 _606_
*688 _725_
*689 _618_
*690 _14_
*691 _584_
*692 _599_
*693 _604_
*694 _585_
*695 _15_
*696 _585_
*697 _595_
*698 _621_
*699 _603_
*700 _22_
*701 _592_
*702 _604_
*703 _595_
*704 _621_
*705 _28_
*706 _598_
*707 _603_
*708 _599_
*709 _641_
*710 _30_
*711 _600_
*712 _726_
*713 _606_
*714 _618_
*715 _35_
*716 _605_
*717 _650_
*718 _606_
*719 _726_
*720 _37_
*721 _607_
*722 _650_
*723 _609_
*724 _725_
*725 _38_
*726 _608_
*727 _725_
*728 _609_
*729 _618_
*730 _43_
*731 _613_
*732 _614_
*733 _729_
*734 _748_
*735 _47_
*736 _617_
*737 _654_
*738 _730_
*739 _666_
*740 _50_
*741 _620_
*742 _651_
*743 _669_
*744 _645_
*745 _53_
*746 _623_
*747 _633_
*748 _642_
*749 _672_
*750 _60_
*751 _630_
*752 _643_
*753 _633_
*754 _672_
*755 _62_
*756 _632_
*757 _692_
*758 _643_
*759 _633_
*760 _65_
*761 _635_
*762 _637_
*763 _680_
*764 _689_
*765 _67_
*766 _637_
*767 _638_
*768 _692_
*769 _642_
*770 _69_
*771 _639_
*772 _669_
*773 _645_
*774 _652_
*775 _74_
*776 _644_
*777 _701_
*778 _652_
*779 _645_
*780 _76_
*781 _646_
*782 _648_
*783 _651_
*784 _701_
*785 _77_
*786 _647_
*787 _648_
*788 _669_
*789 _651_
*790 _79_
*791 _649_
*792 _666_
*793 _731_
*794 _654_
*795 _83_
*796 _653_
*797 _654_
*798 _731_
*799 _710_
*800 _85_
*801 _655_
*802 _657_
*803 _730_
*804 _710_
*805 _86_
*806 _656_
*807 _666_
*808 _730_
*809 _657_
*810 _91_
*811 _661_
*812 _734_
*813 _662_
*814 _745_
*815 _94_
*816 _664_
*817 _665_
*818 _717_
*819 _736_
*820 _95_
*821 _665_
*822 _787_
*823 _714_
*824 _735_
*825 _101_
*826 _671_
*827 _696_
*828 _702_
*829 _812_
*830 _104_
*831 _674_
*832 _684_
*833 _693_
*834 _801_
*835 _105_
*836 _675_
*837 _676_
*838 _794_
*839 _792_
*840 _107_
*841 _677_
*842 _679_
*843 _969_
*844 _984_
*845 _108_
*846 _678_
*847 _679_
*848 _683_
*849 _687_
*850 _110_
*851 _680_
*852 _684_
*853 _801_
*854 _694_
*855 _113_
*856 _683_
*857 _684_
*858 _694_
*859 _790_
*860 _118_
*861 _688_
*862 _690_
*863 _693_
*864 _790_
*865 _119_
*866 _689_
*867 _690_
*868 _801_
*869 _693_
*870 _121_
*871 _691_
*872 _703_
*873 _696_
*874 _812_
*875 _125_
*876 _695_
*877 _703_
*878 _696_
*879 _789_
*880 _127_
*881 _697_
*882 _702_
*883 _789_
*884 _699_
*885 _128_
*886 _698_
*887 _702_
*888 _812_
*889 _699_
*890 _134_
*891 _704_
*892 _705_
*893 _712_
*894 _788_
*895 _136_
*896 _706_
*897 _708_
*898 _711_
*899 _788_
*900 _139_
*901 _709_
*902 _736_
*903 _714_
*904 _787_
*905 _146_
*906 _716_
*907 _735_
*908 _717_
*909 _787_
*910 _194_
*911 _764_
*912 _993_
*913 _768_
*914 _769_
*915 _218_
*916 _789_
*917 _853_
*918 _819_
*919 _811_
*920 _220_
*921 _791_
*922 _792_
*923 _794_
*924 _859_
*925 _223_
*926 _794_
*927 _797_
*928 _796_
*929 _803_
*930 _226_
*931 _797_
*932 _856_
*933 _799_
*934 _802_
*935 _227_
*936 _798_
*937 _857_
*938 _802_
*939 _799_
*940 _230_
*941 _801_
*942 _804_
*943 _807_
*944 _858_
*945 _236_
*946 _807_
*947 _852_
*948 _810_
*949 _813_
*950 _237_
*951 _808_
*952 _813_
*953 _810_
*954 _852_
*955 _238_
*956 _809_
*957 _810_
*958 _853_
*959 _813_
*960 _241_
*961 _812_
*962 _854_
*963 _815_
*964 _818_
*965 _247_
*966 _818_
*967 _824_
*968 _849_
*969 _821_
*970 _248_
*971 _819_
*972 _824_
*973 _849_
*974 _821_
*975 _249_
*976 _820_
*977 _850_
*978 _821_
*979 _824_
*980 _252_
*981 _823_
*982 _826_
*983 _829_
*984 _886_
*985 _258_
*986 _829_
*987 _892_
*988 _835_
*989 _832_
*990 _259_
*991 _830_
*992 _892_
*993 _835_
*994 _832_
*995 _260_
*996 _831_
*997 _893_
*998 _835_
*999 _832_
*1000 _263_
*1001 _834_
*1002 _893_
*1003 _837_
*1004 _842_
*1005 _289_
*1006 _861_
*1007 _905_
*1008 _907_
*1009 _862_
*1010 _294_
*1011 _866_
*1012 _901_
*1013 _903_
*1014 _867_
*1015 _298_
*1016 _870_
*1017 _875_
*1018 _897_
*1019 _871_
*1020 _310_
*1021 _882_
*1022 _935_
*1023 _884_
*1024 _887_
*1025 _311_
*1026 _883_
*1027 _884_
*1028 _887_
*1029 _938_
*1030 _314_
*1031 _886_
*1032 _937_
*1033 _938_
*1034 _889_
*1035 _331_
*1036 _904_
*1037 _958_
*1038 _921_
*1039 _928_
*1040 _341_
*1041 _914_
*1042 _958_
*1043 _915_
*1044 _918_
*1045 _346_
*1046 _919_
*1047 _923_
*1048 _920_
*1049 _927_
*1050 _370_
*1051 _944_
*1052 _945_
*1053 _974_
*1054 _949_
*1055 _375_
*1056 _949_
*1057 _972_
*1058 _971_
*1059 _950_
*1060 _377_
*1061 _951_
*1062 _952_
*1063 _955_
*1064 _981_
*1065 _384_
*1066 _958_
*1067 _959_
*1068 _979_
*1069 _980_
*1070 _398_
*1071 _973_
*1072 _975_
*1073 _987_
*1074 _986_
*1075 _210_
*1076 _780_
*1077 _781_
*1078 _1000_
*1079 _181_
*1080 _751_
*1081 _781_
*1082 _1001_
*1083 _208_
*1084 _778_
*1085 _781_
*1086 _1002_
*1087 _176_
*1088 _746_
*1089 _783_
*1090 _1003_
*1091 _212_
*1092 _782_
*1093 _783_
*1094 _1004_
*1095 _211_
*1096 _781_
*1097 _783_
*1098 _1005_
*1099 _423_
*1100 _1006_
*1101 _1011_
*1102 _1009_
*1103 _169_
*1104 _739_
*1105 _741_
*1106 _1007_
*1107 _424_
*1108 _1007_
*1109 _1009_
*1110 _1011_
*1111 _167_
*1112 _737_
*1113 _738_
*1114 _1008_
*1115 _425_
*1116 _1008_
*1117 _1011_
*1118 _1009_
*1119 _172_
*1120 _742_
*1121 _1010_
*1122 _786_
*1123 _213_
*1124 _783_
*1125 _784_
*1126 _1010_
*1127 _214_
*1128 _784_
*1129 _1012_
*1130 _786_
*1131 _215_
*1132 _785_
*1133 _786_
*1134 _1012_
*1135 _266_
*1136 _837_
*1137 _839_
*1138 _1014_
*1139 _262_
*1140 _833_
*1141 _1014_
*1142 _839_
*1143 _273_
*1144 _844_
*1145 _845_
*1146 _1015_
*1147 _270_
*1148 _841_
*1149 _847_
*1150 _1015_
*1151 _274_
*1152 _845_
*1153 _846_
*1154 _1016_
*1155 _269_
*1156 _840_
*1157 _841_
*1158 _1016_
*1159 _365_
*1160 _938_
*1161 _939_
*1162 _1019_
*1163 _363_
*1164 _936_
*1165 _939_
*1166 _1019_
*1167 _434_
*1168 _1019_
*1169 _1023_
*1170 _1025_
*1171 _362_
*1172 _935_
*1173 _936_
*1174 _1021_
*1175 _364_
*1176 _937_
*1177 _1021_
*1178 _939_
*1179 _436_
*1180 _1021_
*1181 _1023_
*1182 _1025_
*1183 _437_
*1184 _1022_
*1185 _1025_
*1186 _1023_
*1187 _319_
*1188 _891_
*1189 _896_
*1190 _1024_
*1191 _321_
*1192 _893_
*1193 _894_
*1194 _1024_
*1195 _322_
*1196 _894_
*1197 _896_
*1198 _1026_
*1199 _323_
*1200 _895_
*1201 _896_
*1202 _1026_
*1203 _443_
*1204 _1029_
*1205 _1034_
*1206 _1032_
*1207 _444_
*1208 _1030_
*1209 _1034_
*1210 _1032_
*1211 _445_
*1212 _1031_
*1213 _1034_
*1214 _1032_
*1215 _361_
*1216 _934_
*1217 _941_
*1218 _1033_
*1219 _367_
*1220 _940_
*1221 _1035_
*1222 _941_
*1223 _392_
*1224 _966_
*1225 _967_
*1226 _1037_
*1227 _387_
*1228 _961_
*1229 _1037_
*1230 _968_
*1231 _390_
*1232 _964_
*1233 _967_
*1234 _1038_
*1235 _406_
*1236 _981_
*1237 _983_
*1238 _1040_
*1239 _413_
*1240 _990_
*1241 _991_
*1242 _1041_
*1243 _408_
*1244 _985_
*1245 _1042_
*1246 _991_
*1247 _412_
*1248 _989_
*1249 _991_
*1250 _1042_
*1251 _199_
*1252 _769_
*1253 _1044_
*1254 _772_
*1255 _198_
*1256 _768_
*1257 _772_
*1258 _1045_
*1259 _200_
*1260 _770_
*1261 _771_
*1262 _1046_
*1263 psreg[8]
*1264 _1133_
*1265 _1049_
*1266 _1047_
*1267 pcreg[0]
*1268 _1140_
*1269 _1049_
*1270 _1047_
*1271 _455_
*1272 _1047_
*1273 _1048_
*1274 _1056_
*1275 _456_
*1276 _1048_
*1277 _1055_
*1278 _1050_
*1279 psreg[9]
*1280 _1134_
*1281 _1052_
*1282 _1051_
*1283 pcreg[1]
*1284 _1141_
*1285 _1052_
*1286 _1051_
*1287 _458_
*1288 _1051_
*1289 _1056_
*1290 _1054_
*1291 _459_
*1292 _1052_
*1293 _1056_
*1294 _1053_
*1295 pcreg[2]
*1296 _1142_
*1297 _1061_
*1298 _1057_
*1299 _464_
*1300 _1059_
*1301 _1065_
*1302 _1063_
*1303 _467_
*1304 _1062_
*1305 _1063_
*1306 _1065_
*1307 _468_
*1308 _1063_
*1309 _1066_
*1310 _1064_
*1311 _470_
*1312 _1065_
*1313 _1066_
*1314 _1067_
*1315 pcreg[4]
*1316 _1144_
*1317 _1076_
*1318 _1069_
*1319 _473_
*1320 _1069_
*1321 _1074_
*1322 _1077_
*1323 _474_
*1324 _1070_
*1325 _1075_
*1326 _1071_
*1327 _476_
*1328 _1072_
*1329 _1073_
*1330 _1074_
*1331 pcreg[5]
*1332 _1145_
*1333 _1078_
*1334 _1085_
*1335 _481_
*1336 _1078_
*1337 _1086_
*1338 _1083_
*1339 _482_
*1340 _1079_
*1341 _1084_
*1342 _1080_
*1343 _484_
*1344 _1081_
*1345 _1083_
*1346 _1082_
*1347 pcreg[6]
*1348 _1146_
*1349 _1091_
*1350 _1087_
*1351 \partialsb[7]\[7]
*1352 _984_
*1353 _985_
*1354 _1139_
*1355 areg[6]
*1356 _1153_
*1357 _536_
*1358 _990_
*1359 areg[7]
*1360 _1154_
*1361 _534_
*1362 _990_
*1363 _502_
*1364 _542_
*1365 _564_
*1366 _543_
*1367 _503_
*1368 _543_
*1369 _569_
*1370 _551_
*1371 _506_
*1372 _546_
*1373 _551_
*1374 _598_
*1375 _510_
*1376 _550_
*1377 _551_
*1378 _561_
*1379 _516_
*1380 _556_
*1381 _557_
*1382 _720_
*1383 _517_
*1384 _557_
*1385 _574_
*1386 _575_
*1387 _518_
*1388 _558_
*1389 _563_
*1390 _720_
*1391 _520_
*1392 _560_
*1393 _561_
*1394 _596_
*1395 _523_
*1396 _563_
*1397 _575_
*1398 _574_
*1399 _527_
*1400 _567_
*1401 _766_
*1402 _569_
*1403 _531_
*1404 _571_
*1405 _572_
*1406 _759_
*1407 _2_
*1408 _572_
*1409 _573_
*1410 _721_
*1411 _3_
*1412 _573_
*1413 _574_
*1414 _575_
*1415 _4_
*1416 _574_
*1417 _755_
*1418 _579_
*1419 _5_
*1420 _575_
*1421 _754_
*1422 _579_
*1423 _8_
*1424 _578_
*1425 _579_
*1426 _754_
*1427 _9_
*1428 _579_
*1429 _611_
*1430 _610_
*1431 _13_
*1432 _583_
*1433 _600_
*1434 _608_
*1435 _16_
*1436 _586_
*1437 _592_
*1438 _631_
*1439 _17_
*1440 _587_
*1441 _588_
*1442 _597_
*1443 _18_
*1444 _588_
*1445 _637_
*1446 _592_
*1447 _24_
*1448 _594_
*1449 _595_
*1450 _604_
*1451 _25_
*1452 _595_
*1453 _608_
*1454 _600_
*1455 _26_
*1456 _596_
*1457 _598_
*1458 _630_
*1459 _29_
*1460 _599_
*1461 _608_
*1462 _600_
*1463 _32_
*1464 _602_
*1465 _605_
*1466 _607_
*1467 _33_
*1468 _603_
*1469 _605_
*1470 _607_
*1471 _34_
*1472 _604_
*1473 _607_
*1474 _605_
*1475 _36_
*1476 _606_
*1477 _610_
*1478 _611_
*1479 _39_
*1480 _609_
*1481 _610_
*1482 _611_
*1483 _40_
*1484 _610_
*1485 _615_
*1486 _749_
*1487 _41_
*1488 _611_
*1489 _615_
*1490 _748_
*1491 _44_
*1492 _614_
*1493 _749_
*1494 _615_
*1495 _45_
*1496 _615_
*1497 _659_
*1498 _658_
*1499 _48_
*1500 _618_
*1501 _649_
*1502 _656_
*1503 _51_
*1504 _621_
*1505 _647_
*1506 _639_
*1507 _54_
*1508 _624_
*1509 _626_
*1510 _631_
*1511 _55_
*1512 _625_
*1513 _676_
*1514 _626_
*1515 _56_
*1516 _626_
*1517 _630_
*1518 _688_
*1519 _63_
*1520 _633_
*1521 _639_
*1522 _647_
*1523 _64_
*1524 _634_
*1525 _636_
*1526 _635_
*1527 _68_
*1528 _638_
*1529 _647_
*1530 _639_
*1531 _71_
*1532 _641_
*1533 _644_
*1534 _646_
*1535 _72_
*1536 _642_
*1537 _644_
*1538 _646_
*1539 _73_
*1540 _643_
*1541 _644_
*1542 _646_
*1543 _75_
*1544 _645_
*1545 _649_
*1546 _656_
*1547 _78_
*1548 _648_
*1549 _649_
*1550 _656_
*1551 _80_
*1552 _650_
*1553 _655_
*1554 _653_
*1555 _81_
*1556 _651_
*1557 _655_
*1558 _653_
*1559 _82_
*1560 _652_
*1561 _653_
*1562 _655_
*1563 _84_
*1564 _654_
*1565 _659_
*1566 _658_
*1567 _87_
*1568 _657_
*1569 _659_
*1570 _658_
*1571 _88_
*1572 _658_
*1573 _663_
*1574 _745_
*1575 _89_
*1576 _659_
*1577 _744_
*1578 _663_
*1579 _92_
*1580 _662_
*1581 _663_
*1582 _744_
*1583 _93_
*1584 _663_
*1585 _740_
*1586 _718_
*1587 _96_
*1588 _666_
*1589 _716_
*1590 _709_
*1591 _98_
*1592 _668_
*1593 _705_
*1594 _711_
*1595 _99_
*1596 _669_
*1597 _707_
*1598 _700_
*1599 _102_
*1600 _672_
*1601 _691_
*1602 _698_
*1603 _106_
*1604 _676_
*1605 _680_
*1606 _689_
*1607 _109_
*1608 _679_
*1609 _680_
*1610 _689_
*1611 _111_
*1612 _681_
*1613 _687_
*1614 _682_
*1615 _114_
*1616 _684_
*1617 _691_
*1618 _698_
*1619 _115_
*1620 _685_
*1621 _686_
*1622 _859_
*1623 _120_
*1624 _690_
*1625 _691_
*1626 _698_
*1627 _122_
*1628 _692_
*1629 _695_
*1630 _697_
*1631 _123_
*1632 _693_
*1633 _695_
*1634 _697_
*1635 _124_
*1636 _694_
*1637 _697_
*1638 _695_
*1639 _126_
*1640 _696_
*1641 _707_
*1642 _700_
*1643 _129_
*1644 _699_
*1645 _707_
*1646 _700_
*1647 _130_
*1648 _700_
*1649 _705_
*1650 _712_
*1651 _131_
*1652 _701_
*1653 _706_
*1654 _704_
*1655 _132_
*1656 _702_
*1657 _704_
*1658 _706_
*1659 _133_
*1660 _703_
*1661 _706_
*1662 _704_
*1663 _135_
*1664 _705_
*1665 _709_
*1666 _716_
*1667 _137_
*1668 _707_
*1669 _708_
*1670 _711_
*1671 _138_
*1672 _708_
*1673 _709_
*1674 _716_
*1675 _140_
*1676 _710_
*1677 _713_
*1678 _715_
*1679 _141_
*1680 _711_
*1681 _713_
*1682 _715_
*1683 _142_
*1684 _712_
*1685 _713_
*1686 _715_
*1687 _143_
*1688 _713_
*1689 _736_
*1690 _714_
*1691 _144_
*1692 _714_
*1693 _718_
*1694 _740_
*1695 _145_
*1696 _715_
*1697 _735_
*1698 _717_
*1699 _147_
*1700 _717_
*1701 _718_
*1702 _740_
*1703 _149_
*1704 _719_
*1705 _723_
*1706 _722_
*1707 _150_
*1708 _720_
*1709 _722_
*1710 _723_
*1711 _151_
*1712 _721_
*1713 _723_
*1714 _722_
*1715 _152_
*1716 _722_
*1717 _754_
*1718 _724_
*1719 _153_
*1720 _723_
*1721 _724_
*1722 _755_
*1723 _154_
*1724 _724_
*1725 _728_
*1726 _727_
*1727 _155_
*1728 _725_
*1729 _727_
*1730 _728_
*1731 _156_
*1732 _726_
*1733 _728_
*1734 _727_
*1735 _157_
*1736 _727_
*1737 _729_
*1738 _748_
*1739 _158_
*1740 _728_
*1741 _749_
*1742 _729_
*1743 _159_
*1744 _729_
*1745 _733_
*1746 _732_
*1747 _160_
*1748 _730_
*1749 _732_
*1750 _733_
*1751 _161_
*1752 _731_
*1753 _732_
*1754 _733_
*1755 _162_
*1756 _732_
*1757 _744_
*1758 _734_
*1759 _163_
*1760 _733_
*1761 _745_
*1762 _734_
*1763 _164_
*1764 _734_
*1765 _739_
*1766 _737_
*1767 _165_
*1768 _735_
*1769 _737_
*1770 _739_
*1771 _166_
*1772 _736_
*1773 _737_
*1774 _739_
*1775 _168_
*1776 _738_
*1777 _742_
*1778 _785_
*1779 _171_
*1780 _741_
*1781 _742_
*1782 _785_
*1783 _173_
*1784 _743_
*1785 _746_
*1786 _782_
*1787 _174_
*1788 _744_
*1789 _746_
*1790 _782_
*1791 _175_
*1792 _745_
*1793 _782_
*1794 _746_
*1795 _177_
*1796 _747_
*1797 _751_
*1798 _779_
*1799 _178_
*1800 _748_
*1801 _780_
*1802 _750_
*1803 _179_
*1804 _749_
*1805 _780_
*1806 _750_
*1807 _182_
*1808 _752_
*1809 _757_
*1810 _753_
*1811 _183_
*1812 _753_
*1813 _997_
*1814 _778_
*1815 _184_
*1816 _754_
*1817 _756_
*1818 _757_
*1819 _185_
*1820 _755_
*1821 _756_
*1822 _757_
*1823 _186_
*1824 _756_
*1825 _997_
*1826 _778_
*1827 _187_
*1828 _757_
*1829 _998_
*1830 _777_
*1831 _190_
*1832 _760_
*1833 _775_
*1834 _761_
*1835 _191_
*1836 _761_
*1837 _776_
*1838 _995_
*1839 _192_
*1840 _762_
*1841 _992_
*1842 _763_
*1843 _197_
*1844 _767_
*1845 _768_
*1846 _769_
*1847 _202_
*1848 _772_
*1849 _996_
*1850 _776_
*1851 _205_
*1852 _775_
*1853 _776_
*1854 _994_
*1855 _206_
*1856 _776_
*1857 _999_
*1858 _777_
*1859 _222_
*1860 _793_
*1861 _803_
*1862 _796_
*1863 _225_
*1864 _796_
*1865 _800_
*1866 _808_
*1867 _228_
*1868 _799_
*1869 _800_
*1870 _808_
*1871 _229_
*1872 _800_
*1873 _806_
*1874 _814_
*1875 _231_
*1876 _802_
*1877 _807_
*1878 _804_
*1879 _232_
*1880 _803_
*1881 _807_
*1882 _804_
*1883 _233_
*1884 _804_
*1885 _814_
*1886 _806_
*1887 _235_
*1888 _806_
*1889 _819_
*1890 _811_
*1891 _239_
*1892 _810_
*1893 _811_
*1894 _819_
*1895 _240_
*1896 _811_
*1897 _825_
*1898 _817_
*1899 _242_
*1900 _813_
*1901 _815_
*1902 _818_
*1903 _243_
*1904 _814_
*1905 _815_
*1906 _818_
*1907 _244_
*1908 _815_
*1909 _825_
*1910 _817_
*1911 _246_
*1912 _817_
*1913 _822_
*1914 _830_
*1915 _250_
*1916 _821_
*1917 _830_
*1918 _822_
*1919 _251_
*1920 _822_
*1921 _828_
*1922 _836_
*1923 _253_
*1924 _824_
*1925 _829_
*1926 _826_
*1927 _254_
*1928 _825_
*1929 _829_
*1930 _826_
*1931 _255_
*1932 _826_
*1933 _828_
*1934 _836_
*1935 _257_
*1936 _828_
*1937 _833_
*1938 _843_
*1939 _261_
*1940 _832_
*1941 _833_
*1942 _843_
*1943 _264_
*1944 _835_
*1945 _842_
*1946 _837_
*1947 _265_
*1948 _836_
*1949 _837_
*1950 _842_
*1951 _267_
*1952 _838_
*1953 _839_
*1954 _844_
*1955 _278_
*1956 _850_
*1957 _886_
*1958 _851_
*1959 _283_
*1960 _855_
*1961 _897_
*1962 _876_
*1963 _285_
*1964 _857_
*1965 _858_
*1966 _900_
*1967 _288_
*1968 _860_
*1969 _862_
*1970 _907_
*1971 _290_
*1972 _862_
*1973 _863_
*1974 _864_
*1975 _293_
*1976 _865_
*1977 _902_
*1978 _867_
*1979 _296_
*1980 _868_
*1981 _897_
*1982 _872_
*1983 _297_
*1984 _869_
*1985 _872_
*1986 _897_
*1987 _299_
*1988 _871_
*1989 _898_
*1990 _872_
*1991 _300_
*1992 _872_
*1993 _876_
*1994 _878_
*1995 _303_
*1996 _875_
*1997 _878_
*1998 _876_
*1999 _305_
*2000 _877_
*2001 _888_
*2002 _881_
*2003 _306_
*2004 _878_
*2005 _882_
*2006 _879_
*2007 _307_
*2008 _879_
*2009 _888_
*2010 _881_
*2011 _313_
*2012 _885_
*2013 _895_
*2014 _891_
*2015 _317_
*2016 _889_
*2017 _895_
*2018 _891_
*2019 _327_
*2020 _900_
*2021 _901_
*2022 _903_
*2023 _328_
*2024 _901_
*2025 _904_
*2026 _922_
*2027 _330_
*2028 _903_
*2029 _904_
*2030 _922_
*2031 _336_
*2032 _909_
*2033 _946_
*2034 _911_
*2035 _337_
*2036 _910_
*2037 _911_
*2038 _946_
*2039 _338_
*2040 _911_
*2041 _912_
*2042 _913_
*2043 _339_
*2044 _912_
*2045 _917_
*2046 _916_
*2047 _340_
*2048 _913_
*2049 _917_
*2050 _916_
*2051 _342_
*2052 _915_
*2053 _943_
*2054 _916_
*2055 _344_
*2056 _917_
*2057 _918_
*2058 _943_
*2059 _347_
*2060 _920_
*2061 _921_
*2062 _928_
*2063 _354_
*2064 _927_
*2065 _929_
*2066 _963_
*2067 _355_
*2068 _928_
*2069 _929_
*2070 _963_
*2071 _358_
*2072 _931_
*2073 _940_
*2074 _934_
*2075 _359_
*2076 _932_
*2077 _940_
*2078 _934_
*2079 _369_
*2080 _943_
*2081 _958_
*2082 _957_
*2083 _373_
*2084 _947_
*2085 _951_
*2086 _970_
*2087 _374_
*2088 _948_
*2089 _950_
*2090 _973_
*2091 _378_
*2092 _952_
*2093 _959_
*2094 _956_
*2095 _380_
*2096 _954_
*2097 _955_
*2098 _980_
*2099 _381_
*2100 _955_
*2101 _956_
*2102 _959_
*2103 _383_
*2104 _957_
*2105 _960_
*2106 _966_
*2107 _385_
*2108 _959_
*2109 _960_
*2110 _966_
*2111 _394_
*2112 _969_
*2113 _987_
*2114 _976_
*2115 _395_
*2116 _970_
*2117 _972_
*2118 _971_
*2119 _419_
*2120 _1000_
*2121 _1001_
*2122 _420_
*2123 _1001_
*2124 _1002_
*2125 \partialss[5]\[0]
*2126 _1002_
*2127 _1130_
*2128 _421_
*2129 _1003_
*2130 _1004_
*2131 _422_
*2132 _1004_
*2133 _1005_
*2134 \partialss[6]\[0]
*2135 _1005_
*2136 _1131_
*2137 _426_
*2138 _1009_
*2139 _1010_
*2140 _427_
*2141 _1010_
*2142 _1013_
*2143 _428_
*2144 _1011_
*2145 _1012_
*2146 _429_
*2147 _1012_
*2148 _1013_
*2149 \partialss[7]\[0]
*2150 _1013_
*2151 _1132_
*2152 _430_
*2153 _1014_
*2154 _1015_
*2155 _431_
*2156 _1015_
*2157 _1017_
*2158 _432_
*2159 _1016_
*2160 _1017_
*2161 \partialss[7]\[1]
*2162 _1017_
*2163 _1133_
*2164 _433_
*2165 _1018_
*2166 _1019_
*2167 _435_
*2168 _1020_
*2169 _1021_
*2170 _438_
*2171 _1023_
*2172 _1024_
*2173 _439_
*2174 _1024_
*2175 _1027_
*2176 _440_
*2177 _1025_
*2178 _1026_
*2179 _441_
*2180 _1026_
*2181 _1027_
*2182 \partialss[7]\[2]
*2183 _1027_
*2184 _1134_
*2185 _442_
*2186 _1028_
*2187 _1033_
*2188 _446_
*2189 _1032_
*2190 _1033_
*2191 _447_
*2192 _1033_
*2193 _1036_
*2194 _448_
*2195 _1034_
*2196 _1035_
*2197 _449_
*2198 _1035_
*2199 _1036_
*2200 \partialss[7]\[3]
*2201 _1036_
*2202 _1135_
*2203 _450_
*2204 _1037_
*2205 _1038_
*2206 \partialss[7]\[4]
*2207 _1038_
*2208 _1136_
*2209 _451_
*2210 _1039_
*2211 _1040_
*2212 \partialss[7]\[5]
*2213 _1040_
*2214 _1137_
*2215 _452_
*2216 _1041_
*2217 _1042_
*2218 \partialss[7]\[6]
*2219 _1042_
*2220 _1138_
*2221 \partialsb[0]\[0]
*2222 _1043_
*2223 _1125_
*2224 _453_
*2225 _1044_
*2226 _1045_
*2227 _454_
*2228 _1045_
*2229 _1046_
*2230 \partialss[2]\[0]
*2231 _1046_
*2232 _1127_
*2233 _457_
*2234 _1049_
*2235 _1050_
*2236 _1_[8]
*2237 _1050_
*2238 _1117_
*2239 _460_
*2240 _1053_
*2241 _1054_
*2242 _461_
*2243 _1054_
*2244 _1055_
*2245 _1_[9]
*2246 _1055_
*2247 _1118_
*2248 _463_
*2249 _1057_
*2250 _1058_
*2251 _1_[10]
*2252 _1058_
*2253 _1119_
*2254 psreg[11]
*2255 _1136_
*2256 _1059_
*2257 _465_
*2258 _1060_
*2259 _1062_
*2260 _466_
*2261 _1061_
*2262 _1062_
*2263 _469_
*2264 _1064_
*2265 _1068_
*2266 _472_
*2267 _1067_
*2268 _1068_
*2269 _1_[11]
*2270 _1068_
*2271 _1120_
*2272 _475_
*2273 _1071_
*2274 _1077_
*2275 _477_
*2276 _1073_
*2277 _1076_
*2278 _478_
*2279 _1074_
*2280 _1075_
*2281 _480_
*2282 _1076_
*2283 _1077_
*2284 _1_[12]
*2285 _1077_
*2286 _1121_
*2287 _483_
*2288 _1080_
*2289 _1086_
*2290 _486_
*2291 _1082_
*2292 _1085_
*2293 _487_
*2294 _1083_
*2295 _1084_
*2296 _489_
*2297 _1085_
*2298 _1086_
*2299 _1_[13]
*2300 _1086_
*2301 _1122_
*2302 _490_
*2303 _1087_
*2304 _1088_
*2305 _1_[14]
*2306 _1088_
*2307 _1123_
*2308 _491_
*2309 _1089_
*2310 _1092_
*2311 _492_
*2312 _1090_
*2313 _1091_
*2314 _493_
*2315 _1091_
*2316 _1092_
*2317 _0_[6]
*2318 _1092_
*2319 _1124_
*2320 _532_[0]
*2321 _1109_
*2322 _1093_
*2323 y[0]
*2324 _1093_
*2325 _532_[1]
*2326 _1110_
*2327 _1094_
*2328 y[1]
*2329 _1094_
*2330 _532_[2]
*2331 _1111_
*2332 _1095_
*2333 y[2]
*2334 _1095_
*2335 _532_[3]
*2336 _1112_
*2337 _1096_
*2338 y[3]
*2339 _1096_
*2340 _532_[4]
*2341 _1113_
*2342 _1097_
*2343 y[4]
*2344 _1097_
*2345 _532_[5]
*2346 _1114_
*2347 _1098_
*2348 y[5]
*2349 _1098_
*2350 _532_[6]
*2351 _1115_
*2352 _1099_
*2353 y[6]
*2354 _1099_
*2355 _532_[7]
*2356 _1116_
*2357 _1100_
*2358 y[7]
*2359 _1100_
*2360 _532_[8]
*2361 _1117_
*2362 _1101_
*2363 y[8]
*2364 _1101_
*2365 _532_[9]
*2366 _1118_
*2367 _1102_
*2368 y[9]
*2369 _1102_
*2370 _532_[10]
*2371 _1119_
*2372 _1103_
*2373 y[10]
*2374 _1103_
*2375 _532_[11]
*2376 _1120_
*2377 _1104_
*2378 y[11]
*2379 _1104_
*2380 _532_[12]
*2381 _1121_
*2382 _1105_
*2383 y[12]
*2384 _1105_
*2385 _532_[13]
*2386 _1122_
*2387 _1106_
*2388 y[13]
*2389 _1106_
*2390 _532_[14]
*2391 _1123_
*2392 _1107_
*2393 y[14]
*2394 _1107_
*2395 _532_[15]
*2396 _1124_
*2397 _1108_
*2398 y[15]
*2399 _1108_
*2400 psreg[0]
*2401 _1125_
*2402 _1109_
*2403 psreg[1]
*2404 _1126_
*2405 _1110_
*2406 psreg[2]
*2407 _1127_
*2408 _1111_
*2409 psreg[3]
*2410 _1128_
*2411 _1112_
*2412 psreg[4]
*2413 _1129_
*2414 _1113_
*2415 psreg[5]
*2416 _1130_
*2417 _1114_
*2418 psreg[6]
*2419 _1131_
*2420 _1115_
*2421 psreg[7]
*2422 _1132_
*2423 _1116_
*2424 \partialss[1]\[0]
*2425 _993_
*2426 _1126_
*2427 \partialss[3]\[0]
*2428 _996_
*2429 _1128_
*2430 \partialss[4]\[0]
*2431 _999_
*2432 _1129_
*2433 \partialsco[7]\[0]
*2434 _786_
*2435 _1140_
*2436 \partialsco[7]\[1]
*2437 _847_
*2438 _1141_
*2439 \partialsco[7]\[2]
*2440 _896_
*2441 _1142_
*2442 \partialsco[7]\[3]
*2443 _941_
*2444 _1143_
*2445 \partialsco[7]\[4]
*2446 _968_
*2447 _1144_
*2448 \partialsco[7]\[5]
*2449 _983_
*2450 _1145_
*2451 a[0]
*2452 _1147_
*2453 a[1]
*2454 _1148_
*2455 a[2]
*2456 _1149_
*2457 a[3]
*2458 _1150_
*2459 a[4]
*2460 _1151_
*2461 a[5]
*2462 _1152_
*2463 areg[5]
*2464 _1152_
*2465 _660_
*2466 a[6]
*2467 _1153_
*2468 a[7]
*2469 _1154_
*2470 b[0]
*2471 _1155_
*2472 breg[0]
*2473 _1155_
*2474 _533_
*2475 b[1]
*2476 _1156_
*2477 breg[1]
*2478 _1156_
*2479 _537_
*2480 b[2]
*2481 _1157_
*2482 b[3]
*2483 _1158_
*2484 b[4]
*2485 _1159_
*2486 b[5]