* XSpice netlist created from SPICE and liberty sources by spi2xspice.py
*SPICE netlist created from verilog structural netlist module multiplier by vlog2Spice (qflow)
** Start of included library /usr/local/share/qflow/tech/osu018/osu018_stdcells.sp
** End of included library /usr/local/share/qflow/tech/osu018/osu018_stdcells.sp
.subckt multiplier a_vdd a_gnd a_a_0_ a_a_1_ a_a_2_ a_a_3_ a_a_4_ a_a_5_ a_a_6_ a_a_7_ a_a_8_ a_a_9_ a_a_10_ a_a_11_ a_a_12_ a_a_13_ a_a_14_ a_a_15_ a_b_0_ a_b_1_ a_b_2_ a_b_3_ a_b_4_ a_b_5_ a_b_6_ a_b_7_ a_b_8_ a_b_9_ a_b_10_ a_b_11_ a_b_12_ a_b_13_ a_b_14_ a_b_15_ a_clk a_y_0_ a_y_1_ a_y_2_ a_y_3_ a_y_4_ a_y_5_ a_y_6_ a_y_7_ a_y_8_ a_y_9_ a_y_10_ a_y_11_ a_y_12_ a_y_13_ a_y_14_ a_y_15_ a_y_16_ a_y_17_ a_y_18_ a_y_19_ a_y_20_ a_y_21_ a_y_22_ a_y_23_ a_y_24_ a_y_25_ a_y_26_ a_y_27_ a_y_28_ a_y_29_ a_y_30_ a_y_31_
ABUFX2_insert48 [aregp1_10_] aregp1_10_bF$buf0 d_lut_BUFX2
ABUFX2_insert47 [aregp1_10_] aregp1_10_bF$buf1 d_lut_BUFX2
ABUFX2_insert46 [aregp1_10_] aregp1_10_bF$buf2 d_lut_BUFX2
ABUFX2_insert45 [aregp1_10_] aregp1_10_bF$buf3 d_lut_BUFX2
ABUFX2_insert44 [areg_0_] areg_0_bF$buf0 d_lut_BUFX2
ABUFX2_insert43 [areg_0_] areg_0_bF$buf1 d_lut_BUFX2
ABUFX2_insert42 [areg_0_] areg_0_bF$buf2 d_lut_BUFX2
ABUFX2_insert41 [areg_0_] areg_0_bF$buf3 d_lut_BUFX2
ABUFX2_insert40 [areg_0_] areg_0_bF$buf4 d_lut_BUFX2
ABUFX2_insert39 [aregp1_13_] aregp1_13_bF$buf0 d_lut_BUFX2
ABUFX2_insert38 [aregp1_13_] aregp1_13_bF$buf1 d_lut_BUFX2
ABUFX2_insert37 [aregp1_13_] aregp1_13_bF$buf2 d_lut_BUFX2
ABUFX2_insert36 [aregp1_13_] aregp1_13_bF$buf3 d_lut_BUFX2
ABUFX2_insert35 [areg_6_] areg_6_bF$buf0 d_lut_BUFX2
ABUFX2_insert34 [areg_6_] areg_6_bF$buf1 d_lut_BUFX2
ABUFX2_insert33 [areg_6_] areg_6_bF$buf2 d_lut_BUFX2
ABUFX2_insert32 [areg_6_] areg_6_bF$buf3 d_lut_BUFX2
ABUFX2_insert31 [aregp1_8_] aregp1_8_bF$buf0 d_lut_BUFX2
ABUFX2_insert30 [aregp1_8_] aregp1_8_bF$buf1 d_lut_BUFX2
ABUFX2_insert29 [aregp1_8_] aregp1_8_bF$buf2 d_lut_BUFX2
ABUFX2_insert28 [aregp1_8_] aregp1_8_bF$buf3 d_lut_BUFX2
ABUFX2_insert27 [aregp1_8_] aregp1_8_bF$buf4 d_lut_BUFX2
ACLKBUF1_insert26 [clk] clk_bF$buf0 d_lut_CLKBUF1
ACLKBUF1_insert25 [clk] clk_bF$buf1 d_lut_CLKBUF1
ACLKBUF1_insert24 [clk] clk_bF$buf2 d_lut_CLKBUF1
ACLKBUF1_insert23 [clk] clk_bF$buf3 d_lut_CLKBUF1
ACLKBUF1_insert22 [clk] clk_bF$buf4 d_lut_CLKBUF1
ACLKBUF1_insert21 [clk] clk_bF$buf5 d_lut_CLKBUF1
ACLKBUF1_insert20 [clk] clk_bF$buf6 d_lut_CLKBUF1
ACLKBUF1_insert19 [clk] clk_bF$buf7 d_lut_CLKBUF1
ACLKBUF1_insert18 [clk] clk_bF$buf8 d_lut_CLKBUF1
ACLKBUF1_insert17 [clk] clk_bF$buf9 d_lut_CLKBUF1
ABUFX2_insert16 [aregp1_11_] aregp1_11_bF$buf0 d_lut_BUFX2
ABUFX2_insert15 [aregp1_11_] aregp1_11_bF$buf1 d_lut_BUFX2
ABUFX2_insert14 [aregp1_11_] aregp1_11_bF$buf2 d_lut_BUFX2
ABUFX2_insert13 [aregp1_11_] aregp1_11_bF$buf3 d_lut_BUFX2
ABUFX2_insert12 [areg_1_] areg_1_bF$buf0 d_lut_BUFX2
ABUFX2_insert11 [areg_1_] areg_1_bF$buf1 d_lut_BUFX2
ABUFX2_insert10 [areg_1_] areg_1_bF$buf2 d_lut_BUFX2
ABUFX2_insert9 [areg_1_] areg_1_bF$buf3 d_lut_BUFX2
ABUFX2_insert8 [areg_1_] areg_1_bF$buf4 d_lut_BUFX2
ABUFX2_insert7 [areg_4_] areg_4_bF$buf0 d_lut_BUFX2
ABUFX2_insert6 [areg_4_] areg_4_bF$buf1 d_lut_BUFX2
ABUFX2_insert5 [areg_4_] areg_4_bF$buf2 d_lut_BUFX2
ABUFX2_insert4 [areg_4_] areg_4_bF$buf3 d_lut_BUFX2
ABUFX2_insert3 [areg_7_] areg_7_bF$buf0 d_lut_BUFX2
ABUFX2_insert2 [areg_7_] areg_7_bF$buf1 d_lut_BUFX2
ABUFX2_insert1 [areg_7_] areg_7_bF$buf2 d_lut_BUFX2
ABUFX2_insert0 [areg_7_] areg_7_bF$buf3 d_lut_BUFX2
A_2745_ [areg_0_bF$buf4] _129_ d_lut_INVX4
A_2746_ [breg_0_] _140_ d_lut_INVX2
A_2747_ [_129_ _140_] \partials_0_\_0_ d_lut_NOR2X1
A_2748_ [aregp1_8_bF$buf4] _160_ d_lut_INVX1
A_2749_ [bregp1_0_] _171_ d_lut_INVX4
A_2750_ [_160_ _171_] _182_ d_lut_NOR2X1
A_2751_ [\preg_7_\_8_ _182_] _193_ d_lut_NAND2X1
A_2752_ [_193_] _204_ d_lut_INVX2
A_2753_ [\preg_7_\_8_ _182_] _215_ d_lut_NOR2X1
A_2754_ [_215_ _204_] \partials_15_\_8_ d_lut_NOR2X1
A_2755_ [aregp1_9_] _236_ d_lut_INVX1
A_2756_ [_171_ _236_] _246_ d_lut_NOR2X1
A_2757_ [aregp1_8_bF$buf3 bregp1_1_ \preg_7_\_9_] _257_ d_lut_NAND3X1
A_2758_ [bregp1_1_] _268_ d_lut_INVX2
A_2759_ [\preg_7_\_9_] _279_ d_lut_INVX1
A_2760_ [_160_ _268_ _279_] _290_ d_lut_OAI21X1
A_2761_ [_257_ _290_] _301_ d_lut_NAND2X1
A_2762_ [_301_ _246_] _312_ d_lut_XNOR2X1
A_2763_ [_204_ _312_] _323_ d_lut_NAND2X1
A_2764_ [_323_] _343_ d_lut_INVX1
A_2765_ [_204_ _312_] _344_ d_lut_NOR2X1
A_2766_ [_344_ _343_] \partials_15_\_9_ d_lut_NOR2X1
A_2767_ [aregp1_10_bF$buf3] _365_ d_lut_INVX4
A_2768_ [_171_ _365_] _376_ d_lut_NOR2X1
A_2769_ [_376_] _386_ d_lut_INVX1
A_2770_ [_246_] _397_ d_lut_INVX1
A_2771_ [_301_ _397_ _257_] _408_ d_lut_OAI21X1
A_2772_ [bregp1_1_ aregp1_9_] _419_ d_lut_NAND2X1
A_2773_ [aregp1_8_bF$buf2 bregp1_2_ \preg_7_\_10_] _430_ d_lut_NAND3X1
A_2774_ [aregp1_8_bF$buf1 bregp1_2_ \preg_7_\_10_] _441_ d_lut_AOI21X1
A_2775_ [_441_] _452_ d_lut_INVX1
A_2776_ [_430_ _452_] _462_ d_lut_NAND2X1
A_2777_ [_419_ _462_] _473_ d_lut_NOR2X1
A_2778_ [_419_] _494_ d_lut_INVX1
A_2779_ [_430_ _452_ _494_] _505_ d_lut_AOI21X1
A_2780_ [_505_ _473_] _506_ d_lut_NOR2X1
A_2781_ [_408_ _506_] _526_ d_lut_NAND2X1
A_2782_ [_408_] _527_ d_lut_INVX1
A_2783_ [_473_ _505_ _527_] _538_ d_lut_OAI21X1
A_2784_ [_386_ _538_ _526_] _549_ d_lut_NAND3X1
A_2785_ [_462_ _419_] _560_ d_lut_XNOR2X1
A_2786_ [_560_ _527_] _570_ d_lut_NOR2X1
A_2787_ [_408_ _506_] _581_ d_lut_NOR2X1
A_2788_ [_581_ _570_ _376_] _591_ d_lut_OAI21X1
A_2789_ [_549_ _591_ _323_] _602_ d_lut_AOI21X1
A_2790_ [_549_ _591_] _612_ d_lut_NAND2X1
A_2791_ [_343_ _612_] _621_ d_lut_NOR2X1
A_2792_ [_602_ _621_] \partials_15_\_10_ d_lut_NOR2X1
A_2793_ [_581_ _386_ _526_] _641_ d_lut_OAI21X1
A_2794_ [aregp1_11_bF$buf3] _652_ d_lut_INVX2
A_2795_ [_268_ _652_] _662_ d_lut_NOR2X1
A_2796_ [_376_ _662_] _673_ d_lut_NAND2X1
A_2797_ [bregp1_1_ aregp1_10_bF$buf2] _684_ d_lut_NAND2X1
A_2798_ [_171_ _652_ _684_] _695_ d_lut_OAI21X1
A_2799_ [_695_ _673_] _705_ d_lut_NAND2X1
A_2800_ [_441_ _419_ _430_] _716_ d_lut_OAI21X1
A_2801_ [aregp1_9_ bregp1_2_] _727_ d_lut_NAND2X1
A_2802_ [_727_] _738_ d_lut_INVX1
A_2803_ [aregp1_8_bF$buf0 bregp1_3_ \preg_7_\_11_] _758_ d_lut_NAND3X1
A_2804_ [aregp1_8_bF$buf4 bregp1_3_ \preg_7_\_11_] _759_ d_lut_AOI21X1
A_2805_ [_759_] _770_ d_lut_INVX1
A_2806_ [_738_ _758_ _770_] _781_ d_lut_NAND3X1
A_2807_ [_758_] _792_ d_lut_INVX1
A_2808_ [_792_ _759_ _727_] _803_ d_lut_OAI21X1
A_2809_ [_716_ _781_ _803_] _814_ d_lut_NAND3X1
A_2810_ [_716_] _825_ d_lut_INVX1
A_2811_ [_727_ _759_ _792_] _835_ d_lut_NOR3X1
A_2812_ [_758_ _770_ _738_] _846_ d_lut_AOI21X1
A_2813_ [_835_ _846_ _825_] _857_ d_lut_OAI21X1
A_2814_ [_814_ _857_] _868_ d_lut_NAND2X1
A_2815_ [_705_ _868_] _879_ d_lut_NOR2X1
A_2816_ [_879_] _890_ d_lut_INVX1
A_2817_ [_814_] _901_ d_lut_INVX1
A_2818_ [_781_ _803_ _716_] _912_ d_lut_AOI21X1
A_2819_ [_901_ _912_ _705_] _922_ d_lut_OAI21X1
A_2820_ [_922_ _890_ _641_] _933_ d_lut_NAND3X1
A_2821_ [_376_ _538_ _570_] _944_ d_lut_AOI21X1
A_2822_ [_922_] _955_ d_lut_INVX1
A_2823_ [_955_ _879_ _944_] _976_ d_lut_OAI21X1
A_2824_ [_976_ _933_ _602_] _987_ d_lut_NAND3X1
A_2825_ [_987_] _988_ d_lut_INVX1
A_2826_ [_976_ _933_ _602_] _1009_ d_lut_AOI21X1
A_2827_ [_1009_ _988_] \partials_15_\_11_ d_lut_NOR2X1
A_2828_ [_673_] _1019_ d_lut_INVX2
A_2829_ [_912_ _705_ _814_] _1030_ d_lut_OAI21X1
A_2830_ [bregp1_0_ aregp1_12_] _1041_ d_lut_NAND2X1
A_2831_ [bregp1_2_ aregp1_11_bF$buf2] _1052_ d_lut_NAND2X1
A_2832_ [_684_ _1052_] _1063_ d_lut_NOR2X1
A_2833_ [bregp1_1_ aregp1_11_bF$buf1 bregp1_2_ aregp1_10_bF$buf1] _1074_ d_lut_AOI22X1
A_2834_ [_1074_ _1063_] _1085_ d_lut_NOR2X1
A_2835_ [_1085_ _1041_] _1096_ d_lut_XNOR2X1
A_2836_ [_759_ _727_ _758_] _1107_ d_lut_OAI21X1
A_2837_ [aregp1_9_ bregp1_3_] _1117_ d_lut_NAND2X1
A_2838_ [_1117_] _1128_ d_lut_INVX1
A_2839_ [aregp1_8_bF$buf3 bregp1_4_ \preg_7_\_12_] _1139_ d_lut_NAND3X1
A_2840_ [aregp1_8_bF$buf2 bregp1_4_ \preg_7_\_12_] _1150_ d_lut_AOI21X1
A_2841_ [_1150_] _1161_ d_lut_INVX1
A_2842_ [_1128_ _1139_ _1161_] _1172_ d_lut_NAND3X1
A_2843_ [_1139_] _1183_ d_lut_INVX1
A_2844_ [_1183_ _1150_ _1117_] _1194_ d_lut_OAI21X1
A_2845_ [_1107_ _1172_ _1194_] _1205_ d_lut_NAND3X1
A_2846_ [_1107_] _1216_ d_lut_INVX1
A_2847_ [_1117_ _1150_ _1183_] _1226_ d_lut_NOR3X1
A_2848_ [_1139_ _1161_ _1128_] _1237_ d_lut_AOI21X1
A_2849_ [_1226_ _1237_ _1216_] _1248_ d_lut_OAI21X1
A_2850_ [_1205_ _1248_ _1096_] _1259_ d_lut_NAND3X1
A_2851_ [_1085_ _1041_] _1270_ d_lut_XOR2X1
A_2852_ [_1205_] _1281_ d_lut_INVX1
A_2853_ [_1172_ _1194_ _1107_] _1292_ d_lut_AOI21X1
A_2854_ [_1281_ _1292_ _1270_] _1303_ d_lut_OAI21X1
A_2855_ [_1030_ _1259_ _1303_] _1314_ d_lut_NAND3X1
A_2856_ [_705_] _1324_ d_lut_INVX1
A_2857_ [_1324_ _857_ _901_] _1335_ d_lut_AOI21X1
A_2858_ [_1226_ _1237_ _1107_] _1346_ d_lut_OAI21X1
A_2859_ [_1172_ _1194_ _1216_] _1357_ d_lut_NAND3X1
A_2860_ [_1346_ _1357_ _1270_] _1368_ d_lut_AOI21X1
A_2861_ [_1205_ _1248_ _1096_] _1379_ d_lut_AOI21X1
A_2862_ [_1368_ _1379_ _1335_] _1390_ d_lut_OAI21X1
A_2863_ [_1019_ _1390_ _1314_] _1401_ d_lut_NAND3X1
A_2864_ [_1368_ _1379_ _1030_] _1412_ d_lut_OAI21X1
A_2865_ [_1335_ _1259_ _1303_] _1422_ d_lut_NAND3X1
A_2866_ [_673_ _1412_ _1422_] _1433_ d_lut_NAND3X1
A_2867_ [_1401_ _1433_] _1444_ d_lut_NAND2X1
A_2868_ [_933_ _987_] _1455_ d_lut_NAND2X1
A_2869_ [_1455_ _1444_] \partials_15_\_12_ d_lut_XNOR2X1
A_2870_ [_1444_ _987_] _1476_ d_lut_NOR2X1
A_2871_ [_1476_] _1497_ d_lut_INVX2
A_2872_ [_955_ _879_ _944_] _1508_ d_lut_NOR3X1
A_2873_ [_1401_ _1508_ _1433_] _1509_ d_lut_NAND3X1
A_2874_ [_1259_ _1303_ _1030_] _1529_ d_lut_AOI21X1
A_2875_ [_1529_ _673_ _1314_] _1530_ d_lut_OAI21X1
A_2876_ [bregp1_0_ aregp1_13_bF$buf3] _1541_ d_lut_NAND2X1
A_2877_ [_1541_] _1552_ d_lut_INVX1
A_2878_ [_684_ _1052_ _1074_ _1041_] _1563_ d_lut_OAI22X1
A_2879_ [_1552_ _1563_] _1574_ d_lut_NAND2X1
A_2880_ [_1574_] _1585_ d_lut_INVX2
A_2881_ [_1552_ _1563_] _1596_ d_lut_NOR2X1
A_2882_ [_1596_ _1585_] _1606_ d_lut_NOR2X1
A_2883_ [_1606_] _1617_ d_lut_INVX2
A_2884_ [_1270_ _1292_ _1205_] _1628_ d_lut_OAI21X1
A_2885_ [aregp1_12_] _1639_ d_lut_INVX4
A_2886_ [_268_ _1639_] _1650_ d_lut_NOR2X1
A_2887_ [aregp1_10_bF$buf0 bregp1_3_ _1052_] _1661_ d_lut_NAND3X1
A_2888_ [aregp1_10_bF$buf3 bregp1_3_] _1672_ d_lut_NAND2X1
A_2889_ [bregp1_2_ aregp1_11_bF$buf0 _1672_] _1683_ d_lut_NAND3X1
A_2890_ [_1661_ _1683_] _1693_ d_lut_NAND2X1
A_2891_ [_1693_ _1650_] _1704_ d_lut_XNOR2X1
A_2892_ [_1150_ _1117_ _1139_] _1715_ d_lut_OAI21X1
A_2893_ [aregp1_9_ bregp1_4_] _1726_ d_lut_NAND2X1
A_2894_ [aregp1_8_bF$buf1 bregp1_5_ \preg_7_\_13_] _1737_ d_lut_NAND3X1
A_2895_ [_1737_] _1748_ d_lut_INVX1
A_2896_ [aregp1_8_bF$buf0 bregp1_5_ \preg_7_\_13_] _1759_ d_lut_AOI21X1
A_2897_ [_1726_ _1759_ _1748_] _1770_ d_lut_NOR3X1
A_2898_ [_1726_] _1780_ d_lut_INVX1
A_2899_ [_1759_] _1791_ d_lut_INVX1
A_2900_ [_1737_ _1791_ _1780_] _1802_ d_lut_AOI21X1
A_2901_ [_1770_ _1802_ _1715_] _1813_ d_lut_OAI21X1
A_2902_ [_1715_] _1824_ d_lut_INVX2
A_2903_ [_1780_ _1737_ _1791_] _1835_ d_lut_NAND3X1
A_2904_ [_1748_ _1759_ _1726_] _1846_ d_lut_OAI21X1
A_2905_ [_1835_ _1846_ _1824_] _1856_ d_lut_NAND3X1
A_2906_ [_1813_ _1856_ _1704_] _1867_ d_lut_AOI21X1
A_2907_ [_1650_] _1878_ d_lut_INVX2
A_2908_ [_1693_ _1878_] _1889_ d_lut_XNOR2X1
A_2909_ [_1715_ _1835_ _1846_] _1900_ d_lut_NAND3X1
A_2910_ [_1770_ _1802_ _1824_] _1910_ d_lut_OAI21X1
A_2911_ [_1900_ _1910_ _1889_] _1921_ d_lut_AOI21X1
A_2912_ [_1867_ _1921_ _1628_] _1932_ d_lut_OAI21X1
A_2913_ [_1248_ _1096_ _1281_] _1943_ d_lut_AOI21X1
A_2914_ [_1900_ _1910_ _1889_] _1954_ d_lut_NAND3X1
A_2915_ [_1802_ _1824_ _1770_] _1965_ d_lut_NOR3X1
A_2916_ [_1835_ _1846_ _1715_] _1975_ d_lut_AOI21X1
A_2917_ [_1965_ _1975_ _1704_] _1995_ d_lut_OAI21X1
A_2918_ [_1954_ _1995_ _1943_] _2006_ d_lut_NAND3X1
A_2919_ [_1932_ _2006_ _1617_] _2007_ d_lut_AOI21X1
A_2920_ [_1954_ _1995_ _1628_] _2027_ d_lut_NAND3X1
A_2921_ [_1867_ _1921_ _1943_] _2028_ d_lut_OAI21X1
A_2922_ [_2028_ _2027_ _1606_] _2039_ d_lut_AOI21X1
A_2923_ [_2039_ _2007_ _1530_] _2043_ d_lut_OAI21X1
A_2924_ [_1368_ _1379_ _1335_] _2044_ d_lut_NOR3X1
A_2925_ [_1019_ _1390_ _2044_] _2045_ d_lut_AOI21X1
A_2926_ [_1606_ _2028_ _2027_] _2046_ d_lut_NAND3X1
A_2927_ [_1617_ _1932_ _2006_] _2047_ d_lut_NAND3X1
A_2928_ [_2046_ _2047_ _2045_] _2048_ d_lut_NAND3X1
A_2929_ [_2048_ _2043_ _1509_] _2049_ d_lut_AOI21X1
A_2930_ [_673_ _1390_ _1314_] _2050_ d_lut_NAND3X1
A_2931_ [_2044_ _1529_ _1019_] _2051_ d_lut_OAI21X1
A_2932_ [_2050_ _2051_] _2052_ d_lut_NAND2X1
A_2933_ [_2047_ _2046_ _1530_] _2053_ d_lut_NAND3X1
A_2934_ [_2039_ _2007_ _2045_] _2054_ d_lut_OAI21X1
A_2935_ [_1508_ _2052_ _2054_ _2053_] _2055_ d_lut_AOI22X1
A_2936_ [_2049_ _2055_] _2056_ d_lut_NOR2X1
A_2937_ [_2056_ _1497_] \partials_15_\_13_ d_lut_XNOR2X1
A_2938_ [_2049_] _2057_ d_lut_INVX1
A_2939_ [_1497_ _2055_ _2057_] _2058_ d_lut_OAI21X1
A_2940_ [_2053_] _2059_ d_lut_INVX1
A_2941_ [_1954_ _1995_ _1628_] _2060_ d_lut_AOI21X1
A_2942_ [_2060_ _1617_ _2027_] _2061_ d_lut_OAI21X1
A_2943_ [bregp1_1_ aregp1_14_] _2062_ d_lut_NAND2X1
A_2944_ [_1541_ _2062_] _2063_ d_lut_NOR2X1
A_2945_ [_2063_] _2064_ d_lut_INVX2
A_2946_ [aregp1_14_] _2065_ d_lut_INVX4
A_2947_ [bregp1_1_ aregp1_13_bF$buf2] _2066_ d_lut_NAND2X1
A_2948_ [_171_ _2065_ _2066_] _2067_ d_lut_OAI21X1
A_2949_ [_2064_ _2067_] _2068_ d_lut_AND2X2
A_2950_ [_1052_ _1672_] _2069_ d_lut_OR2X2
A_2951_ [_1052_ _1672_] _2070_ d_lut_AND2X2
A_2952_ [_1878_ _2070_ _2069_] _2071_ d_lut_OAI21X1
A_2953_ [_2071_ _2068_] _2072_ d_lut_NAND2X1
A_2954_ [_2072_] _2073_ d_lut_INVX2
A_2955_ [_2071_ _2068_] _2074_ d_lut_NOR2X1
A_2956_ [_2074_ _2073_] _2075_ d_lut_NOR2X1
A_2957_ [_1704_ _1975_ _1900_] _2076_ d_lut_OAI21X1
A_2958_ [bregp1_2_] _2077_ d_lut_INVX2
A_2959_ [_2077_ _1639_] _2078_ d_lut_NOR2X1
A_2960_ [aregp1_11_bF$buf3 bregp1_4_] _2079_ d_lut_NAND2X1
A_2961_ [bregp1_4_] _2080_ d_lut_INVX2
A_2962_ [bregp1_3_ aregp1_11_bF$buf2] _2081_ d_lut_NAND2X1
A_2963_ [_365_ _2080_ _2081_] _2082_ d_lut_OAI21X1
A_2964_ [_1672_ _2079_ _2082_] _2083_ d_lut_OAI21X1
A_2965_ [_2083_ _2078_] _2084_ d_lut_XNOR2X1
A_2966_ [_1759_ _1726_ _1737_] _2085_ d_lut_OAI21X1
A_2967_ [aregp1_9_ bregp1_5_] _2086_ d_lut_NAND2X1
A_2968_ [_2086_] _2087_ d_lut_INVX1
A_2969_ [aregp1_8_bF$buf4 bregp1_6_ \preg_7_\_14_] _2088_ d_lut_NAND3X1
A_2970_ [aregp1_8_bF$buf3 bregp1_6_ \preg_7_\_14_] _2089_ d_lut_AOI21X1
A_2971_ [_2089_] _2090_ d_lut_INVX1
A_2972_ [_2087_ _2088_ _2090_] _2091_ d_lut_NAND3X1
A_2973_ [_2088_] _2092_ d_lut_INVX1
A_2974_ [_2092_ _2089_ _2086_] _2093_ d_lut_OAI21X1
A_2975_ [_2085_ _2091_ _2093_] _2094_ d_lut_NAND3X1
A_2976_ [_2085_] _2095_ d_lut_INVX1
A_2977_ [_2086_ _2089_ _2092_] _2096_ d_lut_NOR3X1
A_2978_ [_2088_ _2090_ _2087_] _2097_ d_lut_AOI21X1
A_2979_ [_2096_ _2097_ _2095_] _2098_ d_lut_OAI21X1
A_2980_ [_2094_ _2098_ _2084_] _2099_ d_lut_NAND3X1
A_2981_ [_2078_] _2100_ d_lut_INVX1
A_2982_ [_2083_ _2100_] _2101_ d_lut_XNOR2X1
A_2983_ [_2096_ _2097_ _2085_] _2102_ d_lut_OAI21X1
A_2984_ [_2091_ _2093_ _2095_] _2103_ d_lut_NAND3X1
A_2985_ [_2102_ _2103_ _2101_] _2104_ d_lut_NAND3X1
A_2986_ [_2099_ _2104_ _2076_] _2105_ d_lut_NAND3X1
A_2987_ [_1910_ _1889_ _1965_] _2106_ d_lut_AOI21X1
A_2988_ [_2102_ _2103_ _2101_] _2107_ d_lut_AOI21X1
A_2989_ [_2094_ _2098_ _2084_] _2108_ d_lut_AOI21X1
A_2990_ [_2107_ _2108_ _2106_] _2109_ d_lut_OAI21X1
A_2991_ [_2075_ _2109_ _2105_] _2110_ d_lut_NAND3X1
A_2992_ [_2073_ _2074_] _2111_ d_lut_OR2X2
A_2993_ [_2107_ _2108_ _2076_] _2112_ d_lut_OAI21X1
A_2994_ [_2099_ _2104_ _2106_] _2113_ d_lut_NAND3X1
A_2995_ [_2111_ _2112_ _2113_] _2114_ d_lut_NAND3X1
A_2996_ [_2110_ _2114_ _2061_] _2115_ d_lut_NAND3X1
A_2997_ [_1867_ _1921_ _1943_] _2116_ d_lut_NOR3X1
A_2998_ [_1606_ _2028_ _2116_] _2117_ d_lut_AOI21X1
A_2999_ [_2112_ _2113_ _2111_] _2118_ d_lut_AOI21X1
A_3000_ [_2109_ _2105_ _2075_] _2119_ d_lut_AOI21X1
A_3001_ [_2118_ _2119_ _2117_] _2120_ d_lut_OAI21X1
A_3002_ [_1585_ _2115_ _2120_] _2121_ d_lut_NAND3X1
A_3003_ [_2118_ _2119_ _2061_] _2122_ d_lut_OAI21X1
A_3004_ [_2110_ _2114_ _2117_] _2123_ d_lut_NAND3X1
A_3005_ [_1574_ _2122_ _2123_] _2124_ d_lut_NAND3X1
A_3006_ [_2059_ _2121_ _2124_] _2125_ d_lut_NAND3X1
A_3007_ [_1574_ _2115_ _2120_] _2126_ d_lut_NAND3X1
A_3008_ [_1585_ _2122_ _2123_] _2127_ d_lut_NAND3X1
A_3009_ [_2053_ _2126_ _2127_] _2128_ d_lut_NAND3X1
A_3010_ [_2125_ _2128_ _2058_] _2129_ d_lut_NAND3X1
A_3011_ [_1509_ _2048_ _2043_] _2130_ d_lut_NAND3X1
A_3012_ [_1476_ _2130_ _2049_] _2131_ d_lut_AOI21X1
A_3013_ [_2126_ _2127_ _2053_] _2132_ d_lut_AOI21X1
A_3014_ [_2121_ _2124_ _2059_] _2133_ d_lut_AOI21X1
A_3015_ [_2132_ _2133_ _2131_] _2134_ d_lut_OAI21X1
A_3016_ [_2129_ _2134_] \partials_15_\_14_ d_lut_AND2X2
A_3017_ [_2131_ _2133_ _2125_] _2135_ d_lut_OAI21X1
A_3018_ [_2110_ _2114_ _2061_] _2136_ d_lut_AOI21X1
A_3019_ [_2136_ _1574_ _2115_] _2137_ d_lut_OAI21X1
A_3020_ [_2099_ _2104_ _2076_] _2138_ d_lut_AOI21X1
A_3021_ [_2138_ _2111_ _2105_] _2139_ d_lut_OAI21X1
A_3022_ [bregp1_0_ aregp1_15_] _2140_ d_lut_NAND2X1
A_3023_ [bregp1_2_ aregp1_14_] _2141_ d_lut_NAND2X1
A_3024_ [aregp1_13_bF$buf1] _2142_ d_lut_INVX4
A_3025_ [_2077_ _2142_ _2062_] _2143_ d_lut_OAI21X1
A_3026_ [_2066_ _2141_ _2143_] _2144_ d_lut_OAI21X1
A_3027_ [_2144_ _2140_] _2145_ d_lut_OR2X2
A_3028_ [aregp1_15_] _2146_ d_lut_INVX8
A_3029_ [_171_ _2146_ _2144_] _2147_ d_lut_OAI21X1
A_3030_ [aregp1_10_bF$buf2 bregp1_4_] _2148_ d_lut_NAND2X1
A_3031_ [_2081_ _2148_] _2149_ d_lut_NOR2X1
A_3032_ [_2078_ _2082_ _2149_] _2150_ d_lut_AOI21X1
A_3033_ [_2150_] _2151_ d_lut_INVX1
A_3034_ [_2151_ _2147_ _2145_] _2152_ d_lut_NAND3X1
A_3035_ [_2140_ _2144_] _2153_ d_lut_NOR2X1
A_3036_ [_2144_ _2140_] _2154_ d_lut_AND2X2
A_3037_ [_2154_ _2153_ _2150_] _2155_ d_lut_OAI21X1
A_3038_ [_2063_ _2155_ _2152_] _2156_ d_lut_NAND3X1
A_3039_ [_2150_ _2147_ _2145_] _2157_ d_lut_NAND3X1
A_3040_ [_2154_ _2153_ _2151_] _2158_ d_lut_OAI21X1
A_3041_ [_2064_ _2158_ _2157_] _2159_ d_lut_NAND3X1
A_3042_ [_2156_ _2159_] _2160_ d_lut_NAND2X1
A_3043_ [_2091_ _2093_ _2085_] _2161_ d_lut_AOI21X1
A_3044_ [_2101_ _2161_ _2094_] _2162_ d_lut_OAI21X1
A_3045_ [bregp1_3_] _2163_ d_lut_INVX2
A_3046_ [_2163_ _1639_] _2164_ d_lut_NOR2X1
A_3047_ [_2164_] _2165_ d_lut_INVX1
A_3048_ [aregp1_11_bF$buf1 bregp1_5_] _2166_ d_lut_NAND2X1
A_3049_ [bregp1_5_] _2167_ d_lut_INVX2
A_3050_ [_365_ _2167_ _2079_] _2168_ d_lut_OAI21X1
A_3051_ [_2148_ _2166_ _2168_] _2169_ d_lut_OAI21X1
A_3052_ [_2169_ _2165_] _2170_ d_lut_XNOR2X1
A_3053_ [_2089_ _2086_ _2088_] _2171_ d_lut_OAI21X1
A_3054_ [aregp1_9_ bregp1_6_] _2172_ d_lut_NAND2X1
A_3055_ [aregp1_8_bF$buf2 bregp1_7_ \preg_7_\_15_] _2173_ d_lut_NAND3X1
A_3056_ [_2173_] _2174_ d_lut_INVX1
A_3057_ [aregp1_8_bF$buf1 bregp1_7_ \preg_7_\_15_] _2175_ d_lut_AOI21X1
A_3058_ [_2172_ _2175_ _2174_] _2176_ d_lut_NOR3X1
A_3059_ [_2172_] _2177_ d_lut_INVX1
A_3060_ [_2175_] _2178_ d_lut_INVX1
A_3061_ [_2173_ _2178_ _2177_] _2179_ d_lut_AOI21X1
A_3062_ [_2176_ _2179_ _2171_] _2180_ d_lut_OAI21X1
A_3063_ [_2171_] _2181_ d_lut_INVX1
A_3064_ [_2177_ _2173_ _2178_] _2182_ d_lut_NAND3X1
A_3065_ [_2174_ _2175_ _2172_] _2183_ d_lut_OAI21X1
A_3066_ [_2182_ _2183_ _2181_] _2184_ d_lut_NAND3X1
A_3067_ [_2180_ _2184_ _2170_] _2185_ d_lut_AOI21X1
A_3068_ [_2169_ _2164_] _2186_ d_lut_XNOR2X1
A_3069_ [_2171_ _2182_ _2183_] _2187_ d_lut_NAND3X1
A_3070_ [_2176_ _2179_ _2181_] _2188_ d_lut_OAI21X1
A_3071_ [_2187_ _2188_ _2186_] _2189_ d_lut_AOI21X1
A_3072_ [_2185_ _2189_ _2162_] _2190_ d_lut_OAI21X1
A_3073_ [_2094_] _2191_ d_lut_INVX1
A_3074_ [_2098_ _2084_ _2191_] _2192_ d_lut_AOI21X1
A_3075_ [_2187_ _2188_ _2186_] _2193_ d_lut_NAND3X1
A_3076_ [_2187_] _2194_ d_lut_INVX1
A_3077_ [_2182_ _2183_ _2171_] _2195_ d_lut_AOI21X1
A_3078_ [_2194_ _2195_ _2170_] _2196_ d_lut_OAI21X1
A_3079_ [_2192_ _2193_ _2196_] _2197_ d_lut_NAND3X1
A_3080_ [_2190_ _2197_ _2160_] _2198_ d_lut_AOI21X1
A_3081_ [_2064_ _2155_ _2152_] _2199_ d_lut_NAND3X1
A_3082_ [_2063_ _2158_ _2157_] _2200_ d_lut_NAND3X1
A_3083_ [_2199_ _2200_] _2201_ d_lut_NAND2X1
A_3084_ [_2162_ _2193_ _2196_] _2202_ d_lut_NAND3X1
A_3085_ [_2185_ _2189_ _2192_] _2203_ d_lut_OAI21X1
A_3086_ [_2202_ _2203_ _2201_] _2204_ d_lut_AOI21X1
A_3087_ [_2198_ _2204_ _2139_] _2205_ d_lut_OAI21X1
A_3088_ [_2107_ _2108_ _2106_] _2206_ d_lut_NOR3X1
A_3089_ [_2075_ _2109_ _2206_] _2207_ d_lut_AOI21X1
A_3090_ [_2202_ _2203_ _2201_] _2208_ d_lut_NAND3X1
A_3091_ [_2185_ _2189_ _2192_] _2209_ d_lut_NOR3X1
A_3092_ [_2193_ _2196_ _2162_] _2210_ d_lut_AOI21X1
A_3093_ [_2209_ _2210_ _2160_] _2211_ d_lut_OAI21X1
A_3094_ [_2207_ _2208_ _2211_] _2212_ d_lut_NAND3X1
A_3095_ [_2212_ _2205_ _2072_] _2213_ d_lut_AOI21X1
A_3096_ [_2139_ _2208_ _2211_] _2214_ d_lut_NAND3X1
A_3097_ [_2198_ _2204_ _2207_] _2215_ d_lut_OAI21X1
A_3098_ [_2214_ _2215_ _2073_] _2216_ d_lut_AOI21X1
A_3099_ [_2213_ _2216_ _2137_] _2217_ d_lut_OAI21X1
A_3100_ [_2137_] _2218_ d_lut_INVX1
A_3101_ [_2073_ _2214_ _2215_] _2219_ d_lut_NAND3X1
A_3102_ [_2198_ _2207_ _2204_] _2220_ d_lut_NOR3X1
A_3103_ [_2208_ _2211_ _2139_] _2221_ d_lut_AOI21X1
A_3104_ [_2220_ _2221_ _2072_] _2222_ d_lut_OAI21X1
A_3105_ [_2219_ _2222_ _2218_] _2223_ d_lut_NAND3X1
A_3106_ [_2217_ _2223_] _2224_ d_lut_NAND2X1
A_3107_ [_2224_ _2135_] \partials_15_\_15_ d_lut_XOR2X1
A_3108_ [_2132_ _2133_ _2131_] _2225_ d_lut_NOR3X1
A_3109_ [_2137_ _2219_ _2222_] _2226_ d_lut_NAND3X1
A_3110_ [_2219_ _2222_ _2137_] _2227_ d_lut_AOI21X1
A_3111_ [_2125_ _2226_ _2227_] _2228_ d_lut_AOI21X1
A_3112_ [_2224_ _2225_ _2228_] _2229_ d_lut_AOI21X1
A_3113_ [_2221_ _2072_ _2214_] _2230_ d_lut_OAI21X1
A_3114_ [_2152_ _2156_] _2231_ d_lut_NAND2X1
A_3115_ [_2231_] _2232_ d_lut_INVX2
A_3116_ [_2160_ _2210_ _2202_] _2233_ d_lut_OAI21X1
A_3117_ [bregp1_2_ aregp1_13_bF$buf0] _2234_ d_lut_NAND2X1
A_3118_ [_2062_ _2234_ _2145_] _2235_ d_lut_OAI21X1
A_3119_ [_268_ _2146_] _2236_ d_lut_NOR2X1
A_3120_ [bregp1_3_ aregp1_13_bF$buf3] _2237_ d_lut_NAND2X1
A_3121_ [_2141_ _2237_] _2238_ d_lut_OR2X2
A_3122_ [_2163_ _2142_ _2141_] _2239_ d_lut_OAI21X1
A_3123_ [_2236_ _2239_ _2238_] _2240_ d_lut_NAND3X1
A_3124_ [bregp1_3_ aregp1_14_] _2241_ d_lut_NAND2X1
A_3125_ [_2234_ _2241_ _2239_] _2242_ d_lut_OAI21X1
A_3126_ [_268_ _2146_ _2242_] _2243_ d_lut_OAI21X1
A_3127_ [aregp1_10_bF$buf1 bregp1_5_] _2244_ d_lut_NAND2X1
A_3128_ [_2079_ _2244_] _2245_ d_lut_NOR2X1
A_3129_ [_2164_ _2168_ _2245_] _2246_ d_lut_AOI21X1
A_3130_ [_2246_] _2247_ d_lut_INVX1
A_3131_ [_2240_ _2243_ _2247_] _2248_ d_lut_NAND3X1
A_3132_ [_2240_] _2249_ d_lut_INVX1
A_3133_ [_2239_ _2238_ _2236_] _2250_ d_lut_AOI21X1
A_3134_ [_2249_ _2250_ _2246_] _2251_ d_lut_OAI21X1
A_3135_ [_2235_ _2248_ _2251_] _2252_ d_lut_NAND3X1
A_3136_ [_2062_ _2234_] _2253_ d_lut_NOR2X1
A_3137_ [_2253_ _2153_] _2254_ d_lut_NOR2X1
A_3138_ [_2240_ _2246_ _2243_] _2255_ d_lut_NAND3X1
A_3139_ [_2249_ _2250_ _2247_] _2256_ d_lut_OAI21X1
A_3140_ [_2254_ _2255_ _2256_] _2257_ d_lut_NAND3X1
A_3141_ [_2257_ _2252_] _2258_ d_lut_NAND2X1
A_3142_ [_2170_ _2195_ _2187_] _2259_ d_lut_OAI21X1
A_3143_ [_2080_ _1639_] _2260_ d_lut_NOR2X1
A_3144_ [_2260_] _2261_ d_lut_INVX1
A_3145_ [aregp1_11_bF$buf0 bregp1_6_] _2262_ d_lut_NAND2X1
A_3146_ [bregp1_6_] _2263_ d_lut_INVX2
A_3147_ [_365_ _2263_ _2166_] _2264_ d_lut_OAI21X1
A_3148_ [_2244_ _2262_ _2264_] _2265_ d_lut_OAI21X1
A_3149_ [_2265_ _2261_] _2266_ d_lut_XNOR2X1
A_3150_ [_2175_ _2172_ _2173_] _2267_ d_lut_OAI21X1
A_3151_ [aregp1_9_ bregp1_7_] _2268_ d_lut_NAND2X1
A_3152_ [aregp1_8_bF$buf0 bregp1_8_ \preg_7_\_16_] _2269_ d_lut_NAND3X1
A_3153_ [_2269_] _2270_ d_lut_INVX1
A_3154_ [aregp1_8_bF$buf4 bregp1_8_ \preg_7_\_16_] _2271_ d_lut_AOI21X1
A_3155_ [_2268_ _2271_ _2270_] _2272_ d_lut_NOR3X1
A_3156_ [_2268_] _2273_ d_lut_INVX1
A_3157_ [_2271_] _2274_ d_lut_INVX1
A_3158_ [_2269_ _2274_ _2273_] _2275_ d_lut_AOI21X1
A_3159_ [_2272_ _2275_ _2267_] _2276_ d_lut_OAI21X1
A_3160_ [_2267_] _2277_ d_lut_INVX1
A_3161_ [_2273_ _2269_ _2274_] _2278_ d_lut_NAND3X1
A_3162_ [_2270_ _2271_ _2268_] _2279_ d_lut_OAI21X1
A_3163_ [_2278_ _2279_ _2277_] _2280_ d_lut_NAND3X1
A_3164_ [_2276_ _2280_ _2266_] _2281_ d_lut_AOI21X1
A_3165_ [_2265_ _2260_] _2282_ d_lut_XNOR2X1
A_3166_ [_2267_ _2278_ _2279_] _2283_ d_lut_NAND3X1
A_3167_ [_2272_ _2275_ _2277_] _2284_ d_lut_OAI21X1
A_3168_ [_2283_ _2284_ _2282_] _2285_ d_lut_AOI21X1
A_3169_ [_2281_ _2285_ _2259_] _2286_ d_lut_OAI21X1
A_3170_ [_2188_ _2186_ _2194_] _2287_ d_lut_AOI21X1
A_3171_ [_2283_ _2284_ _2282_] _2288_ d_lut_NAND3X1
A_3172_ [_2283_] _2289_ d_lut_INVX1
A_3173_ [_2278_ _2279_ _2267_] _2290_ d_lut_AOI21X1
A_3174_ [_2289_ _2290_ _2266_] _2291_ d_lut_OAI21X1
A_3175_ [_2287_ _2288_ _2291_] _2292_ d_lut_NAND3X1
A_3176_ [_2286_ _2292_ _2258_] _2293_ d_lut_AOI21X1
A_3177_ [_2254_ _2248_ _2251_] _2294_ d_lut_NAND3X1
A_3178_ [_2235_ _2255_ _2256_] _2295_ d_lut_NAND3X1
A_3179_ [_2294_ _2295_] _2296_ d_lut_NAND2X1
A_3180_ [_2259_ _2288_ _2291_] _2297_ d_lut_NAND3X1
A_3181_ [_2281_ _2285_ _2287_] _2298_ d_lut_OAI21X1
A_3182_ [_2298_ _2297_ _2296_] _2299_ d_lut_AOI21X1
A_3183_ [_2293_ _2299_ _2233_] _2300_ d_lut_OAI21X1
A_3184_ [_2203_ _2201_ _2209_] _2301_ d_lut_AOI21X1
A_3185_ [_2297_ _2298_ _2296_] _2302_ d_lut_NAND3X1
A_3186_ [_2281_ _2285_ _2287_] _2303_ d_lut_NOR3X1
A_3187_ [_2288_ _2291_ _2259_] _2304_ d_lut_AOI21X1
A_3188_ [_2303_ _2304_ _2258_] _2305_ d_lut_OAI21X1
A_3189_ [_2302_ _2305_ _2301_] _2306_ d_lut_NAND3X1
A_3190_ [_2300_ _2306_ _2232_] _2307_ d_lut_AOI21X1
A_3191_ [_2302_ _2305_ _2233_] _2308_ d_lut_NAND3X1
A_3192_ [_2293_ _2299_ _2301_] _2309_ d_lut_OAI21X1
A_3193_ [_2309_ _2308_ _2231_] _2310_ d_lut_AOI21X1
A_3194_ [_2307_ _2310_ _2230_] _2311_ d_lut_OAI21X1
A_3195_ [_2073_ _2215_ _2220_] _2312_ d_lut_AOI21X1
A_3196_ [_2231_ _2309_ _2308_] _2313_ d_lut_NAND3X1
A_3197_ [_2232_ _2300_ _2306_] _2314_ d_lut_NAND3X1
A_3198_ [_2313_ _2314_ _2312_] _2315_ d_lut_NAND3X1
A_3199_ [_2315_ _2311_] _2316_ d_lut_NAND2X1
A_3200_ [_2229_ _2316_] \partials_15_\_16_ d_lut_XNOR2X1
A_3201_ [_2223_ _2217_] _2317_ d_lut_AND2X2
A_3202_ [_2226_ _2125_] _2318_ d_lut_AND2X2
A_3203_ [_2227_ _2318_ _2317_ _2129_] _2319_ d_lut_OAI22X1
A_3204_ [_2307_ _2310_ _2312_] _2320_ d_lut_NOR3X1
A_3205_ [_2316_ _2319_ _2320_] _2321_ d_lut_AOI21X1
A_3206_ [_2302_ _2305_ _2233_] _2322_ d_lut_AOI21X1
A_3207_ [_2322_ _2232_ _2308_] _2323_ d_lut_OAI21X1
A_3208_ [_2248_ _2252_] _2324_ d_lut_NAND2X1
A_3209_ [_2324_] _2325_ d_lut_INVX2
A_3210_ [_2258_ _2304_ _2297_] _2326_ d_lut_OAI21X1
A_3211_ [_2234_ _2241_ _2240_] _2327_ d_lut_OAI21X1
A_3212_ [_2077_ _2146_] _2328_ d_lut_NOR2X1
A_3213_ [bregp1_4_ aregp1_13_bF$buf2] _2329_ d_lut_NAND2X1
A_3214_ [_2241_ _2329_] _2330_ d_lut_OR2X2
A_3215_ [_2080_ _2142_ _2241_] _2331_ d_lut_OAI21X1
A_3216_ [_2328_ _2331_ _2330_] _2332_ d_lut_NAND3X1
A_3217_ [bregp1_4_ aregp1_14_] _2333_ d_lut_NAND2X1
A_3218_ [_2237_ _2333_ _2331_] _2334_ d_lut_OAI21X1
A_3219_ [_2077_ _2146_ _2334_] _2335_ d_lut_OAI21X1
A_3220_ [aregp1_10_bF$buf0 bregp1_6_] _2336_ d_lut_NAND2X1
A_3221_ [_2166_ _2336_] _2337_ d_lut_NOR2X1
A_3222_ [_2260_ _2264_ _2337_] _2338_ d_lut_AOI21X1
A_3223_ [_2338_] _2339_ d_lut_INVX1
A_3224_ [_2332_ _2335_ _2339_] _2340_ d_lut_NAND3X1
A_3225_ [_2328_] _2341_ d_lut_INVX1
A_3226_ [_2341_ _2334_] _2342_ d_lut_NOR2X1
A_3227_ [_2331_ _2330_ _2328_] _2343_ d_lut_AOI21X1
A_3228_ [_2342_ _2343_ _2338_] _2344_ d_lut_OAI21X1
A_3229_ [_2327_ _2340_ _2344_] _2345_ d_lut_NAND3X1
A_3230_ [_2327_] _2346_ d_lut_INVX1
A_3231_ [_2332_ _2338_ _2335_] _2347_ d_lut_NAND3X1
A_3232_ [_2342_ _2343_ _2339_] _2348_ d_lut_OAI21X1
A_3233_ [_2346_ _2347_ _2348_] _2349_ d_lut_NAND3X1
A_3234_ [_2345_ _2349_] _2350_ d_lut_NAND2X1
A_3235_ [_2266_ _2290_ _2283_] _2351_ d_lut_OAI21X1
A_3236_ [_1639_ _2167_] _2352_ d_lut_NOR2X1
A_3237_ [_2352_] _2353_ d_lut_INVX1
A_3238_ [aregp1_11_bF$buf3 bregp1_7_] _2354_ d_lut_NAND2X1
A_3239_ [bregp1_7_] _2355_ d_lut_INVX4
A_3240_ [_365_ _2355_ _2262_] _2356_ d_lut_OAI21X1
A_3241_ [_2336_ _2354_ _2356_] _2357_ d_lut_OAI21X1
A_3242_ [_2357_ _2353_] _2358_ d_lut_XNOR2X1
A_3243_ [_2271_ _2268_ _2269_] _2359_ d_lut_OAI21X1
A_3244_ [aregp1_9_ bregp1_8_] _2360_ d_lut_NAND2X1
A_3245_ [aregp1_8_bF$buf3 bregp1_9_ \preg_7_\_17_] _2361_ d_lut_NAND3X1
A_3246_ [_2361_] _2362_ d_lut_INVX1
A_3247_ [aregp1_8_bF$buf2 bregp1_9_ \preg_7_\_17_] _2363_ d_lut_AOI21X1
A_3248_ [_2360_ _2363_ _2362_] _2364_ d_lut_NOR3X1
A_3249_ [_2360_] _2365_ d_lut_INVX1
A_3250_ [_2363_] _2366_ d_lut_INVX1
A_3251_ [_2361_ _2366_ _2365_] _2367_ d_lut_AOI21X1
A_3252_ [_2364_ _2367_ _2359_] _2368_ d_lut_OAI21X1
A_3253_ [_2359_] _2369_ d_lut_INVX2
A_3254_ [_2365_ _2361_ _2366_] _2370_ d_lut_NAND3X1
A_3255_ [_2362_ _2363_ _2360_] _2371_ d_lut_OAI21X1
A_3256_ [_2370_ _2371_ _2369_] _2372_ d_lut_NAND3X1
A_3257_ [_2368_ _2372_ _2358_] _2373_ d_lut_AOI21X1
A_3258_ [_2357_ _2352_] _2374_ d_lut_XNOR2X1
A_3259_ [_2359_ _2370_ _2371_] _2375_ d_lut_NAND3X1
A_3260_ [_2364_ _2367_ _2369_] _2376_ d_lut_OAI21X1
A_3261_ [_2375_ _2376_ _2374_] _2377_ d_lut_AOI21X1
A_3262_ [_2373_ _2377_ _2351_] _2378_ d_lut_OAI21X1
A_3263_ [_2284_ _2282_ _2289_] _2379_ d_lut_AOI21X1
A_3264_ [_2375_ _2376_ _2374_] _2380_ d_lut_NAND3X1
A_3265_ [_2367_ _2369_ _2364_] _2381_ d_lut_NOR3X1
A_3266_ [_2370_ _2371_ _2359_] _2382_ d_lut_AOI21X1
A_3267_ [_2381_ _2382_ _2358_] _2383_ d_lut_OAI21X1
A_3268_ [_2380_ _2383_ _2379_] _2384_ d_lut_NAND3X1
A_3269_ [_2378_ _2384_ _2350_] _2385_ d_lut_AOI21X1
A_3270_ [_2346_ _2340_ _2344_] _2386_ d_lut_NAND3X1
A_3271_ [_2327_ _2347_ _2348_] _2387_ d_lut_NAND3X1
A_3272_ [_2386_ _2387_] _2388_ d_lut_NAND2X1
A_3273_ [_2383_ _2380_ _2351_] _2389_ d_lut_NAND3X1
A_3274_ [_2373_ _2377_ _2379_] _2390_ d_lut_OAI21X1
A_3275_ [_2389_ _2390_ _2388_] _2391_ d_lut_AOI21X1
A_3276_ [_2385_ _2391_ _2326_] _2392_ d_lut_OAI21X1
A_3277_ [_2298_ _2296_ _2303_] _2393_ d_lut_AOI21X1
A_3278_ [_2389_ _2390_ _2388_] _2394_ d_lut_NAND3X1
A_3279_ [_2378_ _2384_ _2350_] _2395_ d_lut_NAND3X1
A_3280_ [_2394_ _2395_ _2393_] _2396_ d_lut_NAND3X1
A_3281_ [_2392_ _2396_ _2325_] _2397_ d_lut_AOI21X1
A_3282_ [_2394_ _2395_ _2326_] _2398_ d_lut_NAND3X1
A_3283_ [_2385_ _2391_ _2393_] _2399_ d_lut_OAI21X1
A_3284_ [_2399_ _2398_ _2324_] _2400_ d_lut_AOI21X1