*SPEF "IEEE 1481.1999"
*DESIGN "multiplier"
*DATE "11:45:41 Monday July 20, 2020"
*VENDOR "unknown"
*PROGRAM "qrouter"
*VERSION "unknown"
*DESIGN_FLOW "qflow"
*DIVIDER /
*DELIMITER :
*BUS_DELIMITER <>
*T_UNIT 1 PS
*C_UNIT 1 FF
*R_UNIT 1 OHM
*L_UNIT 1 HENRY

*NAME_MAP
*1 aregp1[9]
*2 _5626_
*3 _3054_
*4 _3151_
*5 _3244_
*6 _3339_
*7 _2967_
*8 _2893_
*9 _2837_
*10 _2801_
*11 _2772_
*12 _2755_
*13 _3823_
*14 _3911_
*15 _3727_
*16 _3529_
*17 _3432_
*18 _3624_
*19 aregp1[14]
*20 _5631_
*21 _3023_
*22 _2946_
*23 _4005_
*24 _3891_
*25 _3689_
*26 _3791_
*27 _3792_
*28 _3698_
*29 _3952_
*30 _3499_
*31 _3503_
*32 _3124_
*33 _3217_
*34 _3312_
*35 _3407_
*36 _2943_
*37 _2146_
*38 _3028_
*39 _3314_
*40 _3307_
*41 _3219_
*42 _3212_
*43 _3400_
*44 _3409_
*45 _3505_
*46 _3498_
*47 _3587_
*48 _3688_
*49 _4098_
*50 _4096_
*51 _4151_
*52 _3029_
*53 _3126_
*54 _3119_
*55 areg[5]
*56 _5654_
*57 _5148_
*58 _4990_
*59 _4894_
*60 _4618_
*61 _4711_
*62 _4714_
*63 _4616_
*64 _4524_
*65 _4437_
*66 _4362_
*67 _5418_
*68 _5313_
*69 _5367_
*70 _4303_
*71 breg[7]
*72 _5672_
*73 _4599_
*74 _4460_
*75 _4455_
*76 _4451_
*77 _4545_
*78 _4449_
*79 _4535_
*80 _4538_
*81 _4809_
*82 _4894_
*83 _4989_
*84 _5064_
*85 _5640_
*86 breg[8]
*87 _5673_
*88 _4695_
*89 _4535_
*90 _4544_
*91 _4539_
*92 _4533_
*93 _4628_
*94 _4632_
*95 _4790_
*96 _4901_
*97 _5059_
*98 _4990_
*99 _5147_
*100 _5641_
*101 clk_bF_buf8
*102 CLKBUF1_insert18
*103 _5647_
*104 _5637_
*105 _5583_
*106 _5639_
*107 _5628_
*108 _5640_
*109 _5624_
*110 _5632_
*111 _5592_
*112 _5591_
*113 _5648_
*114 _5590_
*115 clk_bF_buf9
*116 CLKBUF1_insert17
*117 _5658_
*118 _5626_
*119 _5606_
*120 _5627_
*121 _5630_
*122 _5660_
*123 _5659_
*124 _5662_
*125 _5608_
*126 _5607_
*127 _5609_
*128 _5610_
*129 _628_
*130 _4228_
*131 _4880_
*132 _4229_
*133 _4788_
*134 _4234_
*135 _4302_
*136 _4354_
*137 _4421_
*138 _4696_
*139 _4506_
*140 _4600_
*141 _5134_
*142 _5225_
*143 areg[3]
*144 _5652_
*145 _5135_
*146 _5239_
*147 _5233_
*148 _4981_
*149 _4264_
*150 _4359_
*151 _4262_
*152 _5363_
*153 _5300_
*154 _4237_
*155 _4790_
*156 _4881_
*157 breg[14]
*158 _5679_
*159 _5079_
*160 _5074_
*161 _5071_
*162 _5300_
*163 _5301_
*164 _5157_
*165 _5224_
*166 _5367_
*167 _5372_
*168 _5472_
*169 _5523_
*170 _5647_
*171 breg[15]
*172 _5680_
*173 _5299_
*174 _5305_
*175 _5160_
*176 _5241_
*177 _5245_
*178 _5162_
*179 _5363_
*180 _5418_
*181 _5361_
*182 _5648_
*183 _5156_
*184 _5155_
*185 clk_bF_buf0
*186 CLKBUF1_insert26
*187 _5669_
*188 _5576_
*189 _5671_
*190 _5579_
*191 _5666_
*192 _5665_
*193 _5668_
*194 _5655_
*195 _5600_
*196 _5673_
*197 _5629_
*198 clk_bF_buf1
*199 CLKBUF1_insert25
*200 _5645_
*201 _5676_
*202 _5644_
*203 _5584_
*204 _5654_
*205 _5677_
*206 _5652_
*207 _5667_
*208 _5573_
*209 _5597_
*210 _5674_
*211 clk_bF_buf2
*212 CLKBUF1_insert24
*213 _5605_
*214 _5604_
*215 _5663_
*216 _5631_
*217 _5601_
*218 _5603_
*219 _5602_
*220 _5661_
*221 _5580_
*222 _5577_
*223 _5670_
*224 clk_bF_buf3
*225 CLKBUF1_insert23
*226 _5643_
*227 _5571_
*228 _5595_
*229 _5570_
*230 _5656_
*231 _5675_
*232 _5594_
*233 _5651_
*234 _5679_
*235 _5593_
*236 _5569_
*237 clk_bF_buf4
*238 CLKBUF1_insert22
*239 _5575_
*240 _5625_
*241 _5642_
*242 _5596_
*243 _5572_
*244 _5657_
*245 _5649_
*246 _5599_
*247 _5650_
*248 _5653_
*249 _5680_
*250 clk_bF_buf5
*251 CLKBUF1_insert21
*252 _5582_
*253 _5638_
*254 _5633_
*255 _5636_
*256 _5634_
*257 _5598_
*258 _5578_
*259 _5672_
*260 _5574_
*261 _5635_
*262 _5581_
*263 clk_bF_buf6
*264 CLKBUF1_insert20
*265 _5622_
*266 _5618_
*267 _5611_
*268 _5612_
*269 _5617_
*270 _5620_
*271 _5619_
*272 _5614_
*273 _5613_
*274 _5623_
*275 _5664_
*276 clk_bF_buf7
*277 CLKBUF1_insert19
*278 _5589_
*279 _5588_
*280 _5587_
*281 _5585_
*282 _5646_
*283 _5641_
*284 _5586_
*285 _5621_
*286 _5615_
*287 _5616_
*288 _5678_
*289 aregp1[12]
*290 _5629_
*291 _4013_
*292 _4017_
*293 _3812_
*294 _3903_
*295 _3613_
*296 _3713_
*297 _3901_
*298 _3955_
*299 _3522_
*300 _2885_
*301 _2830_
*302 bregp1[8]
*303 _5641_
*304 _3588_
*305 _3790_
*306 _3590_
*307 _3334_
*308 _3522_
*309 _3410_
*310 _3333_
*311 _3244_
*312 _3154_
*313 _3152_
*314 _3698_
*315 bregp1[9]
*316 _5642_
*317 _3613_
*318 _3791_
*319 _3692_
*320 _3689_
*321 _3891_
*322 _3426_
*323 _3506_
*324 _3339_
*325 _3427_
*326 _3247_
*327 _3245_
*328 bregp1[10]
*329 _5643_
*330 _3713_
*331 _3792_
*332 _3791_
*333 _3891_
*334 _3889_
*335 _3523_
*336 _3597_
*337 _3524_
*338 _3342_
*339 _3340_
*340 _3432_
*341 bregp1[12]
*342 _5645_
*343 _3532_
*344 _3715_
*345 _3903_
*346 _3717_
*347 _3814_
*348 _3721_
*349 _3955_
*350 _3953_
*351 _4005_
*352 _3530_
*353 _3624_
*354 breg[6]
*355 _5671_
*356 _4505_
*357 _4377_
*358 _4804_
*359 _4988_
*360 _4722_
*361 _4375_
*362 _4454_
*363 _4461_
*364 _4451_
*365 _4448_
*366 _5639_
*367 breg[9]
*368 _5674_
*369 _5065_
*370 _5148_
*371 _5236_
*372 _5642_
*373 _4631_
*374 _4996_
*375 _4726_
*376 _4731_
*377 _4635_
*378 _4629_
*379 _4881_
*380 breg[10]
*381 _5675_
*382 _4811_
*383 _4737_
*384 _4725_
*385 _4723_
*386 _5070_
*387 _5236_
*388 _4981_
*389 _5149_
*390 _5234_
*391 _5643_
*392 _5300_
*393 breg[13]
*394 _5678_
*395 _5646_
*396 _5314_
*397 _5313_
*398 _5471_
*399 _5417_
*400 _5239_
*401 _5233_
*402 _5000_
*403 _5073_
*404 _5003_
*405 _4998_
*406 clk
*407 CLKBUF1_insert24
*408 CLKBUF1_insert26
*409 CLKBUF1_insert22
*410 CLKBUF1_insert23
*411 CLKBUF1_insert25
*412 CLKBUF1_insert19
*413 CLKBUF1_insert21
*414 CLKBUF1_insert18
*415 CLKBUF1_insert17
*416 CLKBUF1_insert20
*417 _129_
*418 _2745_
*419 _4825_
*420 _2747_
*421 _5001_
*422 _5163_
*423 _4241_
*424 _4313_
*425 _4273_
*426 _4732_
*427 _4633_
*428 _4727_
*429 _365_
*430 _2767_
*431 _2963_
*432 _3147_
*433 _3050_
*434 _4022_
*435 _2768_
*436 _3718_
*437 _3240_
*438 _3335_
*439 _3428_
*440 _3525_
*441 bregp1[11]
*442 _5644_
*443 _3529_
*444 _3435_
*445 _3434_
*446 _3615_
*447 _3906_
*448 _3952_
*449 _3900_
*450 _4003_
*451 _3812_
*452 _3714_
*453 bregp1[13]
*454 _5646_
*455 _3815_
*456 _3903_
*457 _3813_
*458 _3901_
*459 _4004_
*460 _4095_
*461 _3955_
*462 _3727_
*463 _3627_
*464 _3625_
*465 breg[5]
*466 _5670_
*467 _4312_
*468 _4315_
*469 _4377_
*470 _4310_
*471 _4791_
*472 _4714_
*473 _4626_
*474 _4711_
*475 _4893_
*476 _5638_
*477 bregp1[2]
*478 _5635_
*479 _2801_
*480 _2831_
*481 _2833_
*482 _2889_
*483 _3117_
*484 _3023_
*485 _2958_
*486 _2774_
*487 _2773_
*488 bregp1[3]
*489 _5636_
*490 _2804_
*491 _2803_
*492 _2837_
*493 _2887_
*494 _2888_
*495 _2962_
*496 _3120_
*497 _3124_
*498 _3045_
*499 _2065_
*500 _2946_
*501 _2948_
*502 _4141_
*503 _4145_
*504 _4098_
*505 _3594_
*506 _3693_
*507 _3697_
*508 _3591_
*509 _3971_
*510 bregp1[14]
*511 _5647_
*512 _4017_
*513 _3911_
*514 _3823_
*515 _3730_
*516 _3728_
*517 _4021_
*518 _4179_
*519 _3961_
*520 _4100_
*521 breg[2]
*522 _5667_
*523 _4262_
*524 _5635_
*525 _4264_
*526 _4224_
*527 _4222_
*528 _4437_
*529 _4373_
*530 _4524_
*531 _4614_
*532 breg[4]
*533 _5669_
*534 _4531_
*535 _4616_
*536 _4712_
*537 _4272_
*538 _4309_
*539 _4270_
*540 _4713_
*541 _4803_
*542 _5637_
*543 breg[11]
*544 _5676_
*545 _5644_
*546 _5363_
*547 _5154_
*548 _4824_
*549 _4814_
*550 _4817_
*551 _4812_
*552 _4904_
*553 _4980_
*554 bregp1[4]
*555 _5637_
*556 _2840_
*557 _2839_
*558 _2893_
*559 _2960_
*560 _3030_
*561 _2961_
*562 _3213_
*563 _3217_
*564 bregp1[5]
*565 _5638_
*566 _2896_
*567 _2894_
*568 _2967_
*569 _3048_
*570 _3127_
*571 _3308_
*572 _3312_
*573 _3049_
*574 bregp1[6]
*575 _5639_
*576 _3402_
*577 _3220_
*578 _3054_
*579 _3146_
*580 _3407_
*581 _3145_
*582 _2970_
*583 _2969_
*584 aregp1[15]
*585 _5632_
*586 _3028_
*587 _4003_
*588 _3891_
*589 _3889_
*590 _3790_
*591 _4177_
*592 _4179_
*593 _3022_
*594 _2142_
*595 _3024_
*596 _3310_
*597 _3215_
*598 _3122_
*599 _3405_
*600 _3501_
*601 _3025_
*602 _4144_
*603 _3595_
*604 bregp1[7]
*605 _5640_
*606 _3057_
*607 _3055_
*608 _3239_
*609 _3499_
*610 _3503_
*611 _3238_
*612 _3151_
*613 _3315_
*614 breg[1]
*615 _5666_
*616 _5634_
*617 _4362_
*618 _4367_
*619 _4307_
*620 _4264_
*621 _4223_
*622 _4215_
*623 _4520_
*624 breg[3]
*625 _5668_
*626 _4240_
*627 _4359_
*628 _4710_
*629 _4524_
*630 _4446_
*631 _4522_
*632 _4239_
*633 _5636_
*634 breg[12]
*635 _5677_
*636 _5135_
*637 _5645_
*638 _5308_
*639 _5247_
*640 _5057_
*641 _4907_
*642 _4904_
*643 _4902_
*644 breg[0]
*645 _5665_
*646 _4303_
*647 _5633_
*648 _4435_
*649 _4361_
*650 _4268_
*651 _4221_
*652 _2746_
*653 bregp1[1]
*654 _5634_
*655 _2757_
*656 _2772_
*657 _2758_
*658 _2797_
*659 _2947_
*660 _2943_
*661 _2833_
*662 _1639_
*663 _2885_
*664 _2886_
*665 _2959_
*666 _3143_
*667 _3046_
*668 _3236_
*669 _3331_
*670 _3425_
*671 _88_
*672 _3721_
*673 _3894_
*674 _3970_
*675 _3902_
*676 _3819_
*677 _3815_
*678 _3818_
*679 _3722_
*680 bregp1[15]
*681 _5648_
*682 _3911_
*683 _3909_
*684 _4177_
*685 _3826_
*686 _3824_
*687 _4013_
*688 _4015_
*689 _613_
*690 _4213_
*691 _4724_
*692 _4823_
*693 _4815_
*694 _4225_
*695 _4214_
*696 _5080_
*697 _4313_
*698 areg[2]
*699 _5651_
*700 _4980_
*701 _5057_
*702 _4228_
*703 _4264_
*704 _5299_
*705 _5305_
*706 _4221_
*707 areg_0_bF_buf2
*708 BUFX2_insert42
*709 _4737_
*710 _2745_
*711 _4814_
*712 _4812_
*713 _4904_
*714 _4998_
*715 areg_0_bF_buf3
*716 BUFX2_insert41
*717 _4635_
*718 _4629_
*719 _4539_
*720 _4533_
*721 _4544_
*722 _4535_
*723 areg_0_bF_buf4
*724 BUFX2_insert40
*725 _4215_
*726 _4723_
*727 _4224_
*728 _4310_
*729 _4270_
*730 _4377_
*731 aregp1_8_bF_buf0
*732 BUFX2_insert31
*733 _2840_
*734 _2839_
*735 _3826_
*736 _3824_
*737 _3730_
*738 _3728_
*739 aregp1_8_bF_buf1
*740 BUFX2_insert30
*741 _3435_
*742 _3434_
*743 _3530_
*744 _3532_
*745 _3627_
*746 _3625_
*747 aregp1_8_bF_buf2
*748 BUFX2_insert29
*749 _2757_
*750 _2804_
*751 _2803_
*752 _2774_
*753 _2773_
*754 _2748_
*755 aregp1_8_bF_buf3
*756 BUFX2_insert28
*757 _2896_
*758 _2894_
*759 _3055_
*760 _3057_
*761 _2969_
*762 _2970_
*763 aregp1_8_bF_buf4
*764 BUFX2_insert27
*765 _3154_
*766 _3152_
*767 _3245_
*768 _3247_
*769 _3340_
*770 _3342_
*771 areg_1_bF_buf3
*772 BUFX2_insert9
*773 _4632_
*774 _4628_
*775 _4545_
*776 _4449_
*777 _4535_
*778 _4538_
*779 areg_1_bF_buf4
*780 BUFX2_insert8
*781 _4213_
*782 _4222_
*783 _4377_
*784 _4239_
*785 _4315_
*786 _4309_
*787 _171_
*788 _2749_
*789 _2768_
*790 _2756_
*791 _2798_
*792 _2948_
*793 _3029_
*794 _2750_
*795 _2355_
*796 _3239_
*797 _3591_
*798 _3688_
*799 _3594_
*800 _3425_
*801 _3501_
*802 _3240_
*803 _636_
*804 _4237_
*805 _4238_
*806 _5058_
*807 _4698_
*808 _4602_
*809 _4423_
*810 _4508_
*811 _638_
*812 _4239_
*813 _4276_
*814 _4242_
*815 _4266_
*816 _4271_
*817 _4275_
*818 _4273_
*819 _664_
*820 _4263_
*821 _4337_
*822 _4344_
*823 _4283_
*824 _4265_
*825 _4336_
*826 _4404_
*827 _773_
*828 _4364_
*829 _5370_
*830 _5498_
*831 _5311_
*832 _4365_
*833 _4439_
*834 _5371_
*835 _852_
*836 _4437_
*837 _4442_
*838 _4441_
*839 _4523_
*840 _4527_
*841 _4438_
*842 _4439_
*843 _945_
*844 _4522_
*845 _4619_
*846 _4617_
*847 _4622_
*848 _4523_
*849 _4527_
*850 _4621_
*851 _1048_
*852 _4618_
*853 _5066_
*854 _5150_
*855 _5243_
*856 _5315_
*857 _4805_
*858 _4619_
*859 _1165_
*860 _4725_
*861 _4823_
*862 _4815_
*863 _4727_
*864 _4732_
*865 _4880_
*866 _5150_
*867 aregp1_10_bF_buf2
*868 BUFX2_insert46
*869 _3909_
*870 _3911_
*871 _3815_
*872 _3715_
*873 _3615_
*874 aregp1_10_bF_buf3
*875 BUFX2_insert45
*876 _3030_
*877 _2767_
*878 _3127_
*879 _3220_
*880 _3315_
*881 areg[0]
*882 _5649_
*883 BUFX2_insert43
*884 BUFX2_insert40
*885 BUFX2_insert42
*886 BUFX2_insert44
*887 BUFX2_insert41
*888 areg_0_bF_buf0
*889 BUFX2_insert44
*890 _5003_
*891 _5079_
*892 _5074_
*893 _5155_
*894 _5156_
*895 areg_0_bF_buf1
*896 BUFX2_insert43
*897 _4460_
*898 _4455_
*899 _4451_
*900 _4448_
*901 _4375_
*902 aregp1_13_bF_buf2
*903 BUFX2_insert37
*904 _3692_
*905 _3590_
*906 _3791_
*907 _3588_
*908 _3906_
*909 aregp1_13_bF_buf3
*910 BUFX2_insert36
*911 _3402_
*912 _3024_
*913 _3120_
*914 _3308_
*915 _3213_
*916 areg_6_bF_buf3
*917 BUFX2_insert32
*918 _5236_
*919 _4989_
*920 _5059_
*921 _5065_
*922 _5149_
*923 aregp1[8]
*924 _5625_
*925 BUFX2_insert29
*926 BUFX2_insert28
*927 BUFX2_insert27
*928 BUFX2_insert30
*929 BUFX2_insert31
*930 aregp1_11_bF_buf3
*931 BUFX2_insert13
*932 _3238_
*933 _3145_
*934 _3426_
*935 _3523_
*936 _3333_
*937 areg[1]
*938 _5650_
*939 BUFX2_insert9
*940 BUFX2_insert8
*941 BUFX2_insert11
*942 BUFX2_insert12
*943 BUFX2_insert10
*944 areg_1_bF_buf0
*945 BUFX2_insert12
*946 _4902_
*947 _4811_
*948 _4904_
*949 _4907_
*950 _4817_
*951 areg_1_bF_buf1
*952 BUFX2_insert11
*953 _5071_
*954 _5073_
*955 _5157_
*956 _5160_
*957 _5241_
*958 areg_1_bF_buf2
*959 BUFX2_insert10
*960 _4726_
*961 _4731_
*962 _4451_
*963 _4461_
*964 _4454_
*965 areg_4_bF_buf3
*966 BUFX2_insert4
*967 _4268_
*968 _4307_
*969 _5246_
*970 _5314_
*971 _5372_
*972 areg_7_bF_buf3
*973 BUFX2_insert0
*974 _4803_
*975 _4710_
*976 _4614_
*977 _4435_
*978 _4520_
*979 _140_
*980 _2746_
*981 _4238_
*982 _4229_
*983 _2747_
*984 _4214_
*985 _4365_
*986 _268_
*987 _2758_
*988 _2760_
*989 _2795_
*990 _2886_
*991 _3119_
*992 _3126_
*993 _673_
*994 _2796_
*995 _2799_
*996 _2866_
*997 _2828_
*998 _2930_
*999 _2875_
*1000 _1052_
*1001 _2831_
*1002 _2878_
*1003 _2832_
*1004 _2887_
*1005 _2951_
*1006 _2950_
*1007 _2073_
*1008 _2954_
*1009 _2992_
*1010 _2956_
*1011 _3195_
*1012 _3098_
*1013 _3101_
*1014 _2080_
*1015 _2961_
*1016 _3215_
*1017 _3143_
*1018 _3400_
*1019 _3409_
*1020 _2963_
*1021 _2167_
*1022 _3049_
*1023 _3310_
*1024 _3236_
*1025 _3050_
*1026 _3505_
*1027 _3498_
*1028 _2636_
*1029 _3523_
*1030 _3604_
*1031 _3526_
*1032 _3619_
*1033 _3616_
*1034 _3620_
*1035 _2727_
*1036 _3615_
*1037 _3722_
*1038 _3617_
*1039 _3619_
*1040 _3620_
*1041 _3616_
*1042 _59_
*1043 _3692_
*1044 _3693_
*1045 _3696_
*1046 _3698_
*1047 _3793_
*1048 _3797_
*1049 _195_
*1050 _3823_
*1051 _3827_
*1052 _3834_
*1053 _3908_
*1054 _3828_
*1055 _3964_
*1056 _287_
*1057 _3909_
*1058 _3910_
*1059 _3964_
*1060 _3963_
*1061 _4020_
*1062 _3962_
*1063 _294_
*1064 _3915_
*1065 _3918_
*1066 _3925_
*1067 _3927_
*1068 _3920_
*1069 _3979_
*1070 _315_
*1071 _3934_
*1072 _3996_
*1073 _4088_
*1074 _3943_
*1075 _3941_
*1076 _3944_
*1077 _342_
*1078 _3961_
*1079 _4014_
*1080 _4020_
*1081 _3962_
*1082 _3963_
*1083 _3965_
*1084 _390_
*1085 _4005_
*1086 _4007_
*1087 _4006_
*1088 _4135_
*1089 _4093_
*1090 _4099_
*1091 _674_
*1092 _4272_
*1093 _4313_
*1094 _4273_
*1095 _4423_
*1096 _4354_
*1097 _4619_
*1098 _700_
*1099 _4296_
*1100 _4298_
*1101 _4341_
*1102 _4348_
*1103 _4351_
*1104 _4300_
*1105 _815_
*1106 _4402_
*1107 _4410_
*1108 _4417_
*1109 _4589_
*1110 _4492_
*1111 _4491_
*1112 _1149_
*1113 _4711_
*1114 _4806_
*1115 _4882_
*1116 _4712_
*1117 _4717_
*1118 _4718_
*1119 _1534_
*1120 _5065_
*1121 _5235_
*1122 _5297_
*1123 _5067_
*1124 _5150_
*1125 _5136_
*1126 _1732_
*1127 _5247_
*1128 _5248_
*1129 _5315_
*1130 _5371_
*1131 _5414_
*1132 _5370_
*1133 aregp1[10]
*1134 _5627_
*1135 BUFX2_insert45
*1136 BUFX2_insert47
*1137 BUFX2_insert46
*1138 BUFX2_insert48
*1139 aregp1_10_bF_buf0
*1140 BUFX2_insert48
*1141 _3813_
*1142 _3597_
*1143 _3506_
*1144 _3410_
*1145 aregp1_10_bF_buf1
*1146 BUFX2_insert47
*1147 _2797_
*1148 _2888_
*1149 _2887_
*1150 _2833_
*1151 aregp1[13]
*1152 _5630_
*1153 BUFX2_insert36
*1154 BUFX2_insert38
*1155 BUFX2_insert37
*1156 BUFX2_insert39
*1157 aregp1_13_bF_buf0
*1158 BUFX2_insert39
*1159 _3953_
*1160 _3955_
*1161 _4004_
*1162 _3900_
*1163 aregp1_13_bF_buf1
*1164 BUFX2_insert38
*1165 _2947_
*1166 _4100_
*1167 _2876_
*1168 _3117_
*1169 areg[6]
*1170 _5655_
*1171 BUFX2_insert32
*1172 BUFX2_insert33
*1173 BUFX2_insert34
*1174 BUFX2_insert35
*1175 areg_6_bF_buf0
*1176 BUFX2_insert35
*1177 _4522_
*1178 _4524_
*1179 _4367_
*1180 _4361_
*1181 areg_6_bF_buf1
*1182 BUFX2_insert34
*1183 _4791_
*1184 _4712_
*1185 _4713_
*1186 _4804_
*1187 areg_6_bF_buf2
*1188 BUFX2_insert33
*1189 _4364_
*1190 _5417_
*1191 _5523_
*1192 _5472_
*1193 aregp1[11]
*1194 _5628_
*1195 BUFX2_insert16
*1196 BUFX2_insert14
*1197 BUFX2_insert13
*1198 BUFX2_insert15
*1199 aregp1_11_bF_buf0
*1200 BUFX2_insert16
*1201 _2794_
*1202 _2831_
*1203 _2833_
*1204 _2889_
*1205 aregp1_11_bF_buf1
*1206 BUFX2_insert15
*1207 _3814_
*1208 _3721_
*1209 _3903_
*1210 _3714_
*1211 aregp1_11_bF_buf2
*1212 BUFX2_insert14
*1213 _2960_
*1214 _2962_
*1215 _3048_
*1216 _3961_
*1217 areg[4]
*1218 _5653_
*1219 BUFX2_insert6
*1220 BUFX2_insert4
*1221 BUFX2_insert7
*1222 BUFX2_insert5
*1223 areg_4_bF_buf0
*1224 BUFX2_insert7
*1225 _5070_
*1226 _5154_
*1227 _5308_
*1228 _5245_
*1229 areg_4_bF_buf1
*1230 BUFX2_insert6
*1231 _4626_
*1232 _4531_
*1233 _4446_
*1234 _4373_
*1235 areg_4_bF_buf2
*1236 BUFX2_insert5
*1237 _4722_
*1238 _4809_
*1239 _4901_
*1240 _4996_
*1241 areg[7]
*1242 _5656_
*1243 BUFX2_insert0
*1244 BUFX2_insert2
*1245 BUFX2_insert3
*1246 BUFX2_insert1
*1247 areg_7_bF_buf0
*1248 BUFX2_insert3
*1249 _5363_
*1250 _5471_
*1251 _5413_
*1252 _5361_
*1253 areg_7_bF_buf1
*1254 BUFX2_insert2
*1255 _5300_
*1256 _5301_
*1257 _4988_
*1258 _4893_
*1259 areg_7_bF_buf2
*1260 BUFX2_insert1
*1261 _5064_
*1262 _5236_
*1263 _5234_
*1264 _5147_
*1265 bregp1[0]
*1266 _5633_
*1267 _2749_
*1268 _2830_
*1269 _3022_
*1270 _2876_
*1271 _376_
*1272 _2768_
*1273 _2796_
*1274 _2788_
*1275 _2821_
*1276 _2769_
*1277 _419_
*1278 _2772_
*1279 _2800_
*1280 _2778_
*1281 _2777_
*1282 _2785_
*1283 _652_
*1284 _2794_
*1285 _2798_
*1286 _2795_
*1287 _4016_
*1288 _3617_
*1289 _705_
*1290 _2799_
*1291 _2815_
*1292 _2819_
*1293 _2856_
*1294 _2829_
*1295 _727_
*1296 _2801_
*1297 _2811_
*1298 _2808_
*1299 _2802_
*1300 _2836_
*1301 _758_
*1302 _2803_
*1303 _2807_
*1304 _2812_
*1305 _2806_
*1306 _2836_
*1307 _759_
*1308 _2804_
*1309 _2811_
*1310 _2808_
*1311 _2836_
*1312 _2805_
*1313 _1107_
*1314 _2836_
*1315 _2858_
*1316 _2846_
*1317 _2845_
*1318 _2853_
*1319 _1117_
*1320 _2837_
*1321 _2892_
*1322 _2838_
*1323 _2844_
*1324 _2847_
*1325 _1139_
*1326 _2839_
*1327 _2843_
*1328 _2848_
*1329 _2842_
*1330 _2892_
*1331 _1150_
*1332 _2840_
*1333 _2847_
*1334 _2844_
*1335 _2841_
*1336 _2892_
*1337 _1205_
*1338 _2845_
*1339 _2861_
*1340 _2850_
*1341 _2852_
*1342 _2884_
*1343 _1574_
*1344 _2879_
*1345 _2880_
*1346 _3005_
*1347 _3007_
*1348 _3019_
*1349 _1606_
*1350 _2882_
*1351 _2998_
*1352 _2883_
*1353 _2926_
*1354 _2922_
*1355 _1672_
*1356 _2888_
*1357 _2889_
*1358 _2951_
*1359 _2950_
*1360 _2964_
*1361 _1715_
*1362 _2892_
*1363 _2902_
*1364 _2901_
*1365 _2916_
*1366 _2909_
*1367 _1726_
*1368 _2893_
*1369 _2966_
*1370 _2898_
*1371 _2897_
*1372 _2904_
*1373 _1737_
*1374 _2894_
*1375 _2966_
*1376 _2895_
*1377 _2903_
*1378 _2900_
*1379 _1759_
*1380 _2896_
*1381 _2899_
*1382 _2904_
*1383 _2966_
*1384 _2897_
*1385 _2053_
*1386 _2933_
*1387 _2935_
*1388 _2940_
*1389 _3013_
*1390 _3009_
*1391 _2062_
*1392 _2943_
*1393 _2944_
*1394 _3025_
*1395 _3118_
*1396 _3136_
*1397 _2072_
*1398 _2953_
*1399 _2954_
*1400 _3095_
*1401 _3104_
*1402 _3113_
*1403 _2077_
*1404 _2958_
*1405 _3025_
*1406 _2959_
*1407 _3212_
*1408 _3219_
*1409 _2085_
*1410 _2966_
*1411 _2975_
*1412 _2976_
*1413 _2983_
*1414 _3043_
*1415 _2086_
*1416 _2967_
*1417 _2977_
*1418 _2974_
*1419 _3053_
*1420 _2968_
*1421 _2088_
*1422 _2969_
*1423 _2973_
*1424 _3053_
*1425 _2978_
*1426 _2972_
*1427 _2089_
*1428 _2970_
*1429 _2977_
*1430 _2974_
*1431 _3053_
*1432 _2971_
*1433 _2094_
*1434 _2975_
*1435 _2989_
*1436 _3073_
*1437 _3044_
*1438 _2980_
*1439 _2125_
*1440 _3006_
*1441 _3010_
*1442 _3017_
*1443 _3202_
*1444 _3111_
*1445 _2137_
*1446 _3019_
*1447 _3099_
*1448 _3109_
*1449 _3110_
*1450 _3100_
*1451 _2144_
*1452 _3026_
*1453 _3035_
*1454 _3036_
*1455 _3027_
*1456 _3029_
*1457 _2163_
*1458 _3045_
*1459 _3046_
*1460 _3307_
*1461 _3314_
*1462 _3122_
*1463 _2171_
*1464 _3053_
*1465 _3062_
*1466 _3063_
*1467 _3069_
*1468 _3077_
*1469 _2172_
*1470 _3054_
*1471 _3150_
*1472 _3065_
*1473 _3059_
*1474 _3058_
*1475 _2173_
*1476 _3055_
*1477 _3150_
*1478 _3056_
*1479 _3061_
*1480 _3064_
*1481 _2175_
*1482 _3057_
*1483 _3150_
*1484 _3065_
*1485 _3058_
*1486 _3060_
*1487 _2187_
*1488 _3069_
*1489 _3142_
*1490 _3071_
*1491 _3076_
*1492 _3075_
*1493 _2231_
*1494 _3114_
*1495 _3287_
*1496 _3196_
*1497 _3115_
*1498 _3193_
*1499 _2234_
*1500 _3117_
*1501 _3118_
*1502 _3136_
*1503 _3125_
*1504 _3211_
*1505 _2240_
*1506 _3123_
*1507 _3131_
*1508 _3138_
*1509 _3132_
*1510 _3211_
*1511 _2241_
*1512 _3124_
*1513 _3215_
*1514 _3214_
*1515 _3211_
*1516 _3125_
*1517 _2263_
*1518 _3146_
*1519 _3147_
*1520 _3405_
*1521 _3331_
*1522 _3587_
*1523 _2267_
*1524 _3150_
*1525 _3160_
*1526 _3173_
*1527 _3166_
*1528 _3159_
*1529 _2268_
*1530 _3151_
*1531 _3155_
*1532 _3162_
*1533 _3156_
*1534 _3243_
*1535 _2269_
*1536 _3152_
*1537 _3243_
*1538 _3161_
*1539 _3158_
*1540 _3153_
*1541 _2271_
*1542 _3154_
*1543 _3155_
*1544 _3162_
*1545 _3157_
*1546 _3243_
*1547 _2283_
*1548 _3166_
*1549 _3235_
*1550 _3172_
*1551 _3171_
*1552 _3168_
*1553 _2324_
*1554 _3208_
*1555 _3384_
*1556 _3209_
*1557 _3288_
*1558 _3284_
*1559 _2359_
*1560 _3243_
*1561 _3253_
*1562 _3252_
*1563 _3266_
*1564 _3259_
*1565 _2360_
*1566 _3244_
*1567 _3249_
*1568 _3338_
*1569 _3255_
*1570 _3248_
*1571 _2361_
*1572 _3245_
*1573 _3251_
*1574 _3254_
*1575 _3338_
*1576 _3246_
*1577 _2363_
*1578 _3247_
*1579 _3250_
*1580 _3338_
*1581 _3255_
*1582 _3248_
*1583 _2417_
*1584 _3302_
*1585 _3382_
*1586 _3478_
*1587 _3385_
*1588 _3303_
*1589 _2449_
*1590 _3334_
*1591 _3595_
*1592 _3693_
*1593 _3697_
*1594 _3335_
*1595 _2453_
*1596 _3338_
*1597 _3348_
*1598 _3354_
*1599 _3361_
*1600 _3347_
*1601 _2454_
*1602 _3339_
*1603 _3431_
*1604 _3344_
*1605 _3350_
*1606 _3343_
*1607 _2455_
*1608 _3340_
*1609 _3431_
*1610 _3346_
*1611 _3349_
*1612 _3341_
*1613 _2457_
*1614 _3342_
*1615 _3431_
*1616 _3345_
*1617 _3350_
*1618 _3343_
*1619 _2510_
*1620 _3396_
*1621 _3493_
*1622 _3473_
*1623 _3472_
*1624 _3482_
*1625 _2540_
*1626 _3426_
*1627 _3429_
*1628 _3598_
*1629 _3525_
*1630 _3603_
*1631 _2545_
*1632 _3431_
*1633 _3440_
*1634 _3449_
*1635 _3441_
*1636 _3453_
*1637 _2546_
*1638 _3432_
*1639 _3528_
*1640 _3442_
*1641 _3439_
*1642 _3433_
*1643 _2548_
*1644 _3434_
*1645 _3528_
*1646 _3437_
*1647 _3443_
*1648 _3438_
*1649 _2549_
*1650 _3435_
*1651 _3528_
*1652 _3436_
*1653 _3439_
*1654 _3442_
*1655 _2607_
*1656 _3494_
*1657 _3495_
*1658 _3581_
*1659 _3570_
*1660 _3573_
*1661 _2641_
*1662 _3528_
*1663 _3552_
*1664 _3545_
*1665 _3537_
*1666 _3538_
*1667 _2642_
*1668 _3529_
*1669 _3623_
*1670 _3533_
*1671 _3534_
*1672 _3540_
*1673 _2643_
*1674 _3530_
*1675 _3623_
*1676 _3531_
*1677 _3536_
*1678 _3539_
*1679 _2645_
*1680 _3532_
*1681 _3623_
*1682 _3533_
*1683 _3540_
*1684 _3535_
*1685 _2694_
*1686 _3582_
*1687 _3773_
*1688 _3669_
*1689 _3665_
*1690 _3583_
*1691 _2735_
*1692 _3623_
*1693 _3639_
*1694 _3646_
*1695 _3633_
*1696 _3632_
*1697 _2736_
*1698 _3624_
*1699 _3726_
*1700 _3635_
*1701 _3629_
*1702 _3628_
*1703 _2737_
*1704 _3625_
*1705 _3626_
*1706 _3726_
*1707 _3631_
*1708 _3634_
*1709 _2739_
*1710 _3627_
*1711 _3726_
*1712 _3635_
*1713 _3628_
*1714 _3630_
*1715 _51_
*1716 _3684_
*1717 _3768_
*1718 _3785_
*1719 _3767_
*1720 _3775_
*1721 _61_
*1722 _3694_
*1723 _3806_
*1724 _3708_
*1725 _3702_
*1726 _3789_
*1727 _93_
*1728 _3726_
*1729 _3735_
*1730 _3742_
*1731 _3749_
*1732 _3736_
*1733 _94_
*1734 _3727_
*1735 _3822_
*1736 _3731_
*1737 _3738_
*1738 _3732_
*1739 _95_
*1740 _3728_
*1741 _3822_
*1742 _3729_
*1743 _3734_
*1744 _3737_
*1745 _97_
*1746 _3730_
*1747 _3822_
*1748 _3731_
*1749 _3738_
*1750 _3733_
*1751 _153_
*1752 _3785_
*1753 _3860_
*1754 _4070_
*1755 _3879_
*1756 _4084_
*1757 _184_
*1758 _3813_
*1759 _3894_
*1760 _3814_
*1761 _3819_
*1762 _3818_
*1763 _196_
*1764 _3824_
*1765 _3825_
*1766 _3830_
*1767 _3908_
*1768 _3833_
*1769 _198_
*1770 _3826_
*1771 _3834_
*1772 _3829_
*1773 _3827_
*1774 _3908_
*1775 _200_
*1776 _3828_
*1777 _3965_
*1778 _3912_
*1779 _3830_
*1780 _3833_
*1781 _211_
*1782 _3838_
*1783 _3840_
*1784 _3843_
*1785 _3917_
*1786 _3899_
*1787 _217_
*1788 _3843_
*1789 _3845_
*1790 _3917_
*1791 _3899_
*1792 _3848_
*1793 _238_
*1794 _3863_
*1795 _3884_
*1796 _4069_
*1797 _3865_
*1798 _3879_
*1799 _259_
*1800 _3883_
*1801 _4060_
*1802 _4163_
*1803 _3944_
*1804 _3942_
*1805 _263_
*1806 _3887_
*1807 _3923_
*1808 _3924_
*1809 _3932_
*1810 _3936_
*1811 _278_
*1812 _3901_
*1813 _3954_
*1814 _4000_
*1815 _3970_
*1816 _3902_
*1817 _296_
*1818 _3917_
*1819 _3918_
*1820 _3925_
*1821 _3927_
*1822 _3949_
*1823 _329_
*1824 _3948_
*1825 _3998_
*1826 _3990_
*1827 _3983_
*1828 _3984_
*1829 _352_
*1830 _3969_
*1831 _3975_
*1832 _3973_
*1833 _3999_
*1834 _3981_
*1835 _355_
*1836 _3972_
*1837 _3976_
*1838 _3973_
*1839 _4039_
*1840 _3981_
*1841 _370_
*1842 _3986_
*1843 _3998_
*1844 _3987_
*1845 _3989_
*1846 _4065_
*1847 _375_
*1848 _3991_
*1849 _3996_
*1850 _3992_
*1851 _4058_
*1852 _4088_
*1853 _377_
*1854 _3992_
*1855 _4088_
*1856 _4126_
*1857 _3993_
*1858 _3994_
*1859 _384_
*1860 _4000_
*1861 _4034_
*1862 _4043_
*1863 _4033_
*1864 _4092_
*1865 _398_
*1866 _4012_
*1867 _4030_
*1868 _4029_
*1869 _4094_
*1870 _4025_
*1871 _400_
*1872 _4014_
*1873 _4020_
*1874 _4137_
*1875 _4138_
*1876 _4102_
*1877 _411_
*1878 _4024_
*1879 _4030_
*1880 _4029_
*1881 _4094_
*1882 _4025_
*1883 _426_
*1884 _4038_
*1885 _4091_
*1886 _4047_
*1887 _4120_
*1888 _4054_
*1889 _434_
*1890 _4045_
*1891 _4046_
*1892 _4050_
*1893 _4053_
*1894 _4091_
*1895 _486_
*1896 _4094_
*1897 _4104_
*1898 _4109_
*1899 _4105_
*1900 _4108_
*1901 _489_
*1902 _4097_
*1903 _4135_
*1904 _4176_
*1905 _4099_
*1906 _4152_
*1907 _496_
*1908 _4103_
*1909 _4109_
*1910 _4104_
*1911 _4105_
*1912 _4108_
*1913 _622_
*1914 _4222_
*1915 _4241_
*1916 _4236_
*1917 _4226_
*1918 _4245_
*1919 _633_
*1920 _4234_
*1921 _4256_
*1922 _4291_
*1923 _4254_
*1924 _4235_
*1925 _634_
*1926 _4235_
*1927 _4251_
*1928 _4257_
*1929 _4263_
*1930 _4261_
*1931 _669_
*1932 _4268_
*1933 _4277_
*1934 _4284_
*1935 _4306_
*1936 _4269_
*1937 _671_
*1938 _4270_
*1939 _4276_
*1940 _4271_
*1941 _4275_
*1942 _4316_
*1943 _685_
*1944 _4282_
*1945 _4290_
*1946 _4297_
*1947 _4292_
*1948 _4342_
*1949 _692_
*1950 _4289_
*1951 _4293_
*1952 _4290_
*1953 _4297_
*1954 _4342_
*1955 _711_
*1956 _4307_
*1957 _4318_
*1958 _4372_
*1959 _4321_
*1960 _4308_
*1961 _754_
*1962 _4347_
*1963 _4583_
*1964 _4413_
*1965 _4416_
*1966 _4349_
*1967 _776_
*1968 _4367_
*1969 _4438_
*1970 _4368_
*1971 _4441_
*1972 _4442_
*1973 _783_
*1974 _4373_
*1975 _4374_
*1976 _4445_
*1977 _4381_
*1978 _4384_
*1979 _787_
*1980 _4377_
*1981 _4445_
*1982 _4378_
*1983 _4384_
*1984 _4381_
*1985 _832_
*1986 _4419_
*1987 _4487_
*1988 _4576_
*1989 _4494_
*1990 _4486_
*1991 _839_
*1992 _4425_
*1993 _4429_
*1994 _4430_
*1995 _4426_
*1996 _4427_
*1997 _862_
*1998 _4446_
*1999 _4462_
*2000 _4447_
*2001 _4457_
*2002 _4530_
*2003 _921_
*2004 _4501_
*2005 _4592_
*2006 _4574_
*2007 _4502_
*2008 _4579_
*2009 _931_
*2010 _4510_
*2011 _4515_
*2012 _4514_
*2013 _4511_
*2014 _4512_
*2015 _954_
*2016 _4531_
*2017 _4546_
*2018 _4625_
*2019 _4541_
*2020 _4532_
*2021 _1020_
*2022 _4592_
*2023 _4685_
*2024 _4672_
*2025 _4681_
*2026 _4957_
*2027 _1023_
*2028 _4595_
*2029 _4596_
*2030 _4689_
*2031 _4671_
*2032 _4676_
*2033 _1033_
*2034 _4604_
*2035 _4608_
*2036 _4609_
*2037 _4606_
*2038 _4605_
*2039 _1046_
*2040 _4616_
*2041 _4622_
*2042 _4792_
*2043 _4617_
*2044 _4621_
*2045 _1057_
*2046 _4626_
*2047 _4627_
*2048 _4721_
*2049 _4638_
*2050 _4643_
*2051 _1062_
*2052 _4631_
*2053 _5066_
*2054 _4788_
*2055 _4724_
*2056 _4633_
*2057 _1064_
*2058 _4632_
*2059 _4641_
*2060 _4636_
*2061 _4633_
*2062 _4637_
*2063 _1103_
*2064 _4668_
*2065 _4956_
*2066 _4681_
*2067 _4672_
*2068 _4686_
*2069 _1106_
*2070 _4671_
*2071 _4956_
*2072 _4681_
*2073 _4686_
*2074 _4672_
*2075 _1109_
*2076 _4673_
*2077 _4678_
*2078 _4686_
*2079 _4966_
*2080 _4956_
*2081 _1112_
*2082 _4676_
*2083 _4957_
*2084 _4966_
*2085 _4678_
*2086 _4685_
*2087 _1113_
*2088 _4677_
*2089 _4957_
*2090 _4966_
*2091 _4678_
*2092 _4685_
*2093 _1129_
*2094 _4692_
*2095 _4764_
*2096 _4774_
*2097 _4781_
*2098 _4765_
*2099 _1137_
*2100 _4700_
*2101 _4704_
*2102 _4705_
*2103 _4702_
*2104 _4701_
*2105 _1162_
*2106 _4722_
*2107 _4729_
*2108 _4808_
*2109 _4740_
*2110 _4728_
*2111 _1229_
*2112 _4784_
*2113 _4785_
*2114 _4856_
*2115 _4873_
*2116 _4861_
*2117 _1238_
*2118 _4792_
*2119 _4798_
*2120 _4794_
*2121 _4793_
*2122 _4797_
*2123 _1251_
*2124 _4804_
*2125 _4882_
*2126 _4806_
*2127 _4895_
*2128 _4896_
*2129 _1260_
*2130 _4812_
*2131 _4908_
*2132 _4813_
*2133 _4819_
*2134 _4823_
*2135 _1273_
*2136 _4824_
*2137 _4825_
*2138 _5058_
*2139 _5243_
*2140 _5311_
*2141 _1310_
*2142 _4858_
*2143 _4863_
*2144 _4867_
*2145 _4969_
*2146 _4961_
*2147 _1313_
*2148 _4861_
*2149 _4863_
*2150 _4962_
*2151 _4969_
*2152 _4866_
*2153 _1315_
*2154 _4862_
*2155 _4969_
*2156 _4866_
*2157 _4863_
*2158 _4962_
*2159 _1330_
*2160 _4877_
*2161 _4951_
*2162 _4975_
*2163 _4943_
*2164 _4942_
*2165 _1336_
*2166 _4882_
*2167 _4888_
*2168 _4889_
*2169 _4884_
*2170 _4883_
*2171 _1354_
*2172 _4899_
*2173 _4923_
*2174 _4900_
*2175 _4918_
*2176 _4914_
*2177 _1356_
*2178 _4901_
*2179 _4995_
*2180 _4913_
*2181 _4906_
*2182 _4905_
*2183 _1358_
*2184 _4902_
*2185 _4903_
*2186 _5001_
*2187 _5004_
*2188 _5249_
*2189 _1360_
*2190 _4904_
*2191 _4909_
*2192 _4913_
*2193 _4905_
*2194 _4995_
*2195 _1439_
*2196 _4977_
*2197 _4978_
*2198 _5042_
*2199 _5051_
*2200 _5037_
*2201 _1453_
*2202 _4990_
*2203 _5067_
*2204 _5136_
*2205 _4991_
*2206 _4992_
*2207 _1460_
*2208 _4996_
*2209 _5009_
*2210 _5069_
*2211 _4997_
*2212 _5006_
*2213 _1504_
*2214 _5038_
*2215 _5047_
*2216 _5045_
*2217 _5215_
*2218 _5452_
*2219 _1513_
*2220 _5045_
*2221 _5452_
*2222 _5455_
*2223 _5046_
*2224 _5049_
*2225 _1520_
*2226 _5053_
*2227 _5198_
*2228 _5116_
*2229 _5054_
*2230 _5113_
*2231 _1539_
*2232 _5070_
*2233 _5085_
*2234 _5077_
*2235 _5076_
*2236 _5153_
*2237 _1544_
*2238 _5074_
*2239 _5161_
*2240 _5078_
*2241 _5075_
*2242 _5252_
*2243 _1604_
*2244 _5130_
*2245 _5131_
*2246 _5196_
*2247 _5199_
*2248 _5284_
*2249 _1611_
*2250 _5136_
*2251 _5137_
*2252 _5138_
*2253 _5143_
*2254 _5142_
*2255 _1651_
*2256 _5172_
*2257 _5174_
*2258 _5177_
*2259 _5261_
*2260 _5232_
*2261 _1656_
*2262 _5177_
*2263 _5184_
*2264 _5179_
*2265 _5232_
*2266 _5261_
*2267 _1674_
*2268 _5193_
*2269 _5209_
*2270 _5453_
*2271 _5207_
*2272 _5197_
*2273 _1675_
*2274 _5194_
*2275 _5196_
*2276 _5199_
*2277 _5220_